@<TRIPOS>MOLECULE

34	36	1
SMALL
PartialCharges
****
Generated from molSimplify

@<TRIPOS>ATOM
1 P1	8.0342  0.8779  11.8777 P.3	1 RES1 0.0
2 C1	9.2961  2.121  12.3391 C.ar	1 RES1 0.0
3 C2	8.8751  3.4374  12.4609 C.ar	1 RES1 0.0
4 H1	7.9913  3.6594  12.2756 H	1 RES1 0.0
5 C3	9.7739  4.4356  12.8624 C.ar	1 RES1 0.0
6 H2	9.4893  5.3185  12.9311 H	1 RES1 0.0
7 C4	11.067  4.1081  13.1542 C.ar	1 RES1 0.0
8 H3	11.6647  4.7689  13.4201 H	1 RES1 0.0
9 C5	11.4867  2.8117  13.0563 C.ar	1 RES1 0.0
10 H4	12.3649  2.5916  13.2674 H	1 RES1 0.0
11 C6	10.6131  1.8351  12.6462 C.ar	1 RES1 0.0
12 H5	10.9161  0.9588  12.5742 H	1 RES1 0.0
13 C7	7.5968  1.3763  10.1582 C.ar	1 RES1 0.0
14 C8	6.4896  0.7859  9.5765 C.ar	1 RES1 0.0
15 H6	5.9845  0.1727  10.0604 H	1 RES1 0.0
16 C9	6.1334  1.0975  8.2964 C.ar	1 RES1 0.0
17 H7	5.4081  0.6639  7.9086 H	1 RES1 0.0
18 C10	6.8084  2.018  7.5757 C.ar	1 RES1 0.0
19 H8	6.5268  2.2475  6.7195 H	1 RES1 0.0
20 C11	7.9033  2.6042  8.1197 C.ar	1 RES1 0.0
21 H9	8.3919  3.2169  7.6203 H	1 RES1 0.0
22 C12	8.3037  2.3021  9.4049 C.ar	1 RES1 0.0
23 H10	9.0506  2.7204  9.7687 H	1 RES1 0.0
24 C13	8.9724  -0.6338  11.5034 C.ar	1 RES1 0.0
25 C14	8.6859  -1.793  12.195 C.ar	1 RES1 0.0
26 H11	8.0497  -1.7665  12.8727 H	1 RES1 0.0
27 C15	9.3122  -2.9902  11.9153 C.ar	1 RES1 0.0
28 H12	9.0986  -3.7553  12.4009 H	1 RES1 0.0
29 C16	10.255  -3.0461  10.9149 C.ar	1 RES1 0.0
30 H13	10.6844  -3.8475  10.7193 H	1 RES1 0.0
31 C17	10.5519  -1.9232  10.2165 C.ar	1 RES1 0.0
32 H14	11.188  -1.9614  9.5387 H	1 RES1 0.0
33 C18	9.9273  -0.7249  10.4911 C.ar	1 RES1 0.0
34 H15	10.145  0.0316  9.9952 H	1 RES1 0.0
@<TRIPOS>BOND
1 1 2 1
1 1 13 1
1 1 24 1
1 2 3 ar
1 2 11 ar
1 3 4 1
1 3 5 ar
1 5 6 1
1 5 7 ar
1 7 8 1
1 7 9 ar
1 9 10 1
1 9 11 ar
1 11 12 1
1 13 14 ar
1 13 22 ar
1 14 15 1
1 14 16 ar
1 16 17 1
1 16 18 ar
1 18 19 1
1 18 20 ar
1 20 21 1
1 20 22 ar
1 22 23 1
1 24 25 ar
1 24 33 ar
1 25 26 1
1 25 27 ar
1 27 28 1
1 27 29 ar
1 29 30 1
1 29 31 ar
1 31 32 1
1 31 33 ar
1 33 34 1
@<TRIPOS>SUBSTRUCTURE
1 RES1 34

