@<TRIPOS>MOLECULE

52	54	1
SMALL
PartialCharges
****
Generated from molSimplify

@<TRIPOS>ATOM
1 P1	2.2304  2.1925  10.7558 P.3	1 RES1 0.0
2 C1	0.942  2.2057  9.388 C.3	1 RES1 0.0
3 H1	0.0961  2.1113  9.8724 H	1 RES1 0.0
4 C2	0.8174  3.5411  8.7305 C.3	1 RES1 0.0
5 H2	1.5979  3.6962  8.1762 H	1 RES1 0.0
6 H3	0.7963  4.2301  9.413 H	1 RES1 0.0
7 C3	-0.4388  3.6527  7.8683 C.3	1 RES1 0.0
8 H4	-1.2243  3.5967  8.4342 H	1 RES1 0.0
9 H5	-0.4496  4.5142  7.4255 H	1 RES1 0.0
10 C4	-0.4872  2.5689  6.8463 C.3	1 RES1 0.0
11 H6	0.2374  2.6903  6.2121 H	1 RES1 0.0
12 H7	-1.3243  2.6246  6.3569 H	1 RES1 0.0
13 C5	-0.3706  1.2074  7.4888 C.3	1 RES1 0.0
14 H8	-0.3401  0.5296  6.7963 H	1 RES1 0.0
15 H9	-1.1566  1.0433  8.0314 H	1 RES1 0.0
16 C6	0.8879  1.0923  8.3676 C.3	1 RES1 0.0
17 H10	0.8841  0.2367  8.8254 H	1 RES1 0.0
18 H11	1.6775  1.1296  7.8067 H	1 RES1 0.0
19 C7	2.4587  0.3628  11.0376 C.3	1 RES1 0.0
20 H12	2.5253  -0.0667  10.1587 H	1 RES1 0.0
21 C8	3.7253  0.0237  11.8149 C.3	1 RES1 0.0
22 H13	4.4992  0.3371  11.3205 H	1 RES1 0.0
23 H14	3.7098  0.4849  12.6688 H	1 RES1 0.0
24 C9	3.8548  -1.472  12.0546 C.3	1 RES1 0.0
25 H15	4.6556  -1.6464  12.5739 H	1 RES1 0.0
26 H16	3.9453  -1.9271  11.204 H	1 RES1 0.0
27 C10	2.6437  -2.026  12.797 C.3	1 RES1 0.0
28 H17	2.7369  -2.986  12.9018 H	1 RES1 0.0
29 H18	2.5908  -1.6291  13.6792 H	1 RES1 0.0
30 C11	1.3789  -1.7195  12.0246 C.3	1 RES1 0.0
31 H19	0.6103  -2.024  12.5323 H	1 RES1 0.0
32 H20	1.3914  -2.2012  11.1824 H	1 RES1 0.0
33 C12	1.2455  -0.223  11.7516 C.3	1 RES1 0.0
34 H21	0.4566  -0.0697  11.2073 H	1 RES1 0.0
35 H22	1.1199  0.2432  12.5922 H	1 RES1 0.0
36 C13	3.8536  2.705  10.0222 C.3	1 RES1 0.0
37 H23	4.5079  2.5413  10.7329 H	1 RES1 0.0
38 C14	4.3827  1.9265  8.8271 C.3	1 RES1 0.0
39 H24	3.8151  2.0854  8.0564 H	1 RES1 0.0
40 H25	4.3638  0.9765  9.0235 H	1 RES1 0.0
41 C15	5.8243  2.3597  8.5058 C.3	1 RES1 0.0
42 H26	6.4011  2.1254  9.2498 H	1 RES1 0.0
43 H27	6.1355  1.878  7.7251 H	1 RES1 0.0
44 C16	5.9228  3.8357  8.2478 C.3	1 RES1 0.0
45 H28	6.851  4.0767  8.103 H	1 RES1 0.0
46 H29	5.4248  4.0574  7.4471 H	1 RES1 0.0
47 C17	5.3785  4.6135  9.4096 C.3	1 RES1 0.0
48 H30	5.3959  5.5607  9.1966 H	1 RES1 0.0
49 H31	5.9462  4.473  10.1837 H	1 RES1 0.0
50 C18	3.9467  4.2014  9.7525 C.3	1 RES1 0.0
51 H32	3.6501  4.6892  10.5365 H	1 RES1 0.0
52 H33	3.3584  4.434  9.0168 H	1 RES1 0.0
@<TRIPOS>BOND
1 1 2 1
1 1 19 1
1 1 36 1
1 2 3 1
1 2 4 1
1 2 16 1
1 4 5 1
1 4 6 1
1 4 7 1
1 7 8 1
1 7 9 1
1 7 10 1
1 10 11 1
1 10 12 1
1 10 13 1
1 13 14 1
1 13 15 1
1 13 16 1
1 16 17 1
1 16 18 1
1 19 20 1
1 19 21 1
1 19 33 1
1 21 22 1
1 21 23 1
1 21 24 1
1 24 25 1
1 24 26 1
1 24 27 1
1 27 28 1
1 27 29 1
1 27 30 1
1 30 31 1
1 30 32 1
1 30 33 1
1 33 34 1
1 33 35 1
1 36 37 1
1 36 38 1
1 36 50 1
1 38 39 1
1 38 40 1
1 38 41 1
1 41 42 1
1 41 43 1
1 41 44 1
1 44 45 1
1 44 46 1
1 44 47 1
1 47 48 1
1 47 49 1
1 47 50 1
1 50 51 1
1 50 52 1
@<TRIPOS>SUBSTRUCTURE
1 RES1 52

