@<TRIPOS>MOLECULE

27	28	1
SMALL
PartialCharges
****
Generated from molSimplify

@<TRIPOS>ATOM
1 P1	6.6251  7.0216  2.4567 P.3	1 RES1 0.0
2 C1	7.5944  5.646  1.7582 C.ar	1 RES1 0.0
3 C2	7.877  4.5376  2.5738 C.ar	1 RES1 0.0
4 H1	7.5494  4.5097  3.4651 H	1 RES1 0.0
5 C3	8.6351  3.4811  2.0805 C.ar	1 RES1 0.0
6 H2	8.8188  2.7331  2.6367 H	1 RES1 0.0
7 C4	9.1295  3.5104  0.7714 C.ar	1 RES1 0.0
8 H3	9.6497  2.7883  0.4391 H	1 RES1 0.0
9 C5	8.8531  4.6026  -0.0355 C.ar	1 RES1 0.0
10 H4	9.1825  4.6242  -0.9263 H	1 RES1 0.0
11 C6	8.0962  5.6713  0.4468 C.ar	1 RES1 0.0
12 H5	7.9199  6.4179  -0.1136 H	1 RES1 0.0
13 C7	4.8762  6.4987  2.3737 C.ar	1 RES1 0.0
14 C8	4.4442  5.296  1.8035 C.ar	1 RES1 0.0
15 H6	5.0794  4.6668  1.4825 H	1 RES1 0.0
16 C9	3.0733  5.0207  1.7065 C.ar	1 RES1 0.0
17 H7	2.7789  4.2053  1.3178 H	1 RES1 0.0
18 C10	2.1448  5.9404  2.179 C.ar	1 RES1 0.0
19 H8	1.2165  5.7503  2.111 H	1 RES1 0.0
20 C11	2.5638  7.1365  2.7502 C.ar	1 RES1 0.0
21 H9	1.9254  7.7648  3.0666 H	1 RES1 0.0
22 C12	3.9276  7.4076  2.8555 C.ar	1 RES1 0.0
23 H10	4.2158  8.2182  3.2586 H	1 RES1 0.0
24 C13	6.6465  8.3343  1.1901 C.3	1 RES1 0.0
25 H11	6.238  7.9987  0.365 H	1 RES1 0.0
26 H12	7.5724  8.6006  1.0114 H	1 RES1 0.0
27 H13	6.1405  9.1087  1.5137 H	1 RES1 0.0
@<TRIPOS>BOND
1 1 2 1
1 1 13 1
1 1 24 1
1 2 3 ar
1 2 11 ar
1 3 4 1
1 3 5 ar
1 5 6 1
1 5 7 ar
1 7 8 1
1 7 9 ar
1 9 10 1
1 9 11 ar
1 11 12 1
1 13 14 ar
1 13 22 ar
1 14 15 1
1 14 16 ar
1 16 17 1
1 16 18 ar
1 18 19 1
1 18 20 ar
1 20 21 1
1 20 22 ar
1 22 23 1
1 24 25 1
1 24 26 1
1 24 27 1
@<TRIPOS>SUBSTRUCTURE
1 RES1 27

