@<TRIPOS>MOLECULE

52	54	1
SMALL
PartialCharges
****
Generated from molSimplify

@<TRIPOS>ATOM
1 P1	0.2748  2.6497  4.2288 P.3	1 RES1 0.0
2 F1	-4.7877  3.8011  2.5759 F	1 RES1 0.0
3 F2	-4.916  3.3638  0.5552 F	1 RES1 0.0
4 F3	-4.1327  5.4038  1.3854 F	1 RES1 0.0
5 F4	-0.0432  1.0023  -1.1104 F	1 RES1 0.0
6 F5	-0.7932  2.7639  -2.0498 F	1 RES1 0.0
7 F6	1.0889  2.8145  -1.0512 F	1 RES1 0.0
8 F7	-1.3615  7.4033  6.6287 F	1 RES1 0.0
9 F8	0.3898  6.7376  7.5848 F	1 RES1 0.0
10 F9	-1.4525  6.8768  8.6386 F	1 RES1 0.0
11 F10	-3.0926  2.2754  9.4961 F	1 RES1 0.0
12 F11	-3.3921  0.9684  7.8149 F	1 RES1 0.0
13 F12	-4.5868  2.7082  8.05 F	1 RES1 0.0
14 F13	-2.9883  -1.6204  3.1995 F	1 RES1 0.0
15 F14	-2.2255  -3.2866  4.2923 F	1 RES1 0.0
16 F15	-3.1825  -1.6553  5.3302 F	1 RES1 0.0
17 F16	2.3065  -3.0853  6.0864 F	1 RES1 0.0
18 F17	3.2358  -2.3007  4.2743 F	1 RES1 0.0
19 F18	3.2387  -1.2858  6.2791 F	1 RES1 0.0
20 C1	-0.7421  2.8854  2.7142 C.ar	1 RES1 0.0
21 C2	-2.0316  3.3865  2.6988 C.ar	1 RES1 0.0
22 H1	-2.4552  3.627  3.5161 H	1 RES1 0.0
23 C3	-2.7154  3.5435  1.4805 C.ar	1 RES1 0.0
24 C4	-2.1112  3.1992  0.2853 C.ar	1 RES1 0.0
25 H2	-2.5758  3.303  -0.5346 H	1 RES1 0.0
26 C5	-0.8117  2.7006  0.3007 C.ar	1 RES1 0.0
27 C6	-0.1494  2.5513  1.5062 C.ar	1 RES1 0.0
28 H3	0.7373  2.2096  1.5036 H	1 RES1 0.0
29 C7	-4.1188  4.08  1.4907 C.3	1 RES1 0.0
30 C8	-0.1542  2.3083  -0.9741 C.3	1 RES1 0.0
31 C9	-0.7955  3.2802  5.5775 C.ar	1 RES1 0.0
32 C10	-1.718  2.5007  6.3228 C.ar	1 RES1 0.0
33 H4	-1.8976  1.6047  6.0684 H	1 RES1 0.0
34 C11	-2.3507  3.0448  7.4101 C.ar	1 RES1 0.0
35 C12	-2.106  4.3483  7.8136 C.ar	1 RES1 0.0
36 H5	-2.5451  4.7052  8.577 H	1 RES1 0.0
37 C13	-1.2115  5.1203  7.0913 C.ar	1 RES1 0.0
38 C14	-0.5564  4.5837  5.9913 C.ar	1 RES1 0.0
39 H6	0.0649  5.1203  5.5106 H	1 RES1 0.0
40 C15	-0.898  6.5351  7.4897 C.3	1 RES1 0.0
41 C16	-3.3492  2.2374  8.194 C.3	1 RES1 0.0
42 C17	0.1776  0.8327  4.4003 C.ar	1 RES1 0.0
43 C18	-1.0047  0.1139  4.1998 C.ar	1 RES1 0.0
44 H7	-1.7851  0.5568  3.8888 H	1 RES1 0.0
45 C19	-1.0385  -1.2554  4.4594 C.ar	1 RES1 0.0
46 C20	0.0902  -1.9312  4.8758 C.ar	1 RES1 0.0
47 H8	0.0492  -2.8626  5.0634 H	1 RES1 0.0
48 C21	1.2877  -1.2402  5.012 C.ar	1 RES1 0.0
49 C22	1.3319  0.1468  4.7858 C.ar	1 RES1 0.0
50 H9	2.1481  0.6176  4.8963 H	1 RES1 0.0
51 C23	-2.3508  -1.9641  4.3257 C.3	1 RES1 0.0
52 C24	2.5469  -1.9337  5.3873 C.3	1 RES1 0.0
@<TRIPOS>BOND
1 1 20 1
1 1 31 1
1 1 42 1
1 2 29 1
1 3 29 1
1 4 29 1
1 5 30 1
1 6 30 1
1 7 30 1
1 8 40 1
1 9 40 1
1 10 40 1
1 11 41 1
1 12 41 1
1 13 41 1
1 14 51 1
1 15 51 1
1 16 51 1
1 17 52 1
1 18 52 1
1 19 52 1
1 20 21 ar
1 20 27 ar
1 21 22 1
1 21 23 ar
1 23 24 ar
1 23 29 1
1 24 25 1
1 24 26 ar
1 26 27 ar
1 26 30 1
1 27 28 1
1 31 32 ar
1 31 38 ar
1 32 33 1
1 32 34 ar
1 34 35 ar
1 34 41 1
1 35 36 1
1 35 37 ar
1 37 38 ar
1 37 40 1
1 38 39 1
1 42 43 ar
1 42 49 ar
1 43 44 1
1 43 45 ar
1 45 46 ar
1 45 51 1
1 46 47 1
1 46 48 ar
1 48 49 ar
1 48 52 1
1 49 50 1
@<TRIPOS>SUBSTRUCTURE
1 RES1 52

