@<TRIPOS>MOLECULE

31	30	1
SMALL
PartialCharges
****
Generated from molSimplify

@<TRIPOS>ATOM
1 P1	1.7427  12.5972  6.631 P.3	1 RES1 0.0
2 C1	2.5498  11.226  7.6018 C.3	1 RES1 0.0
3 H1	2.5691  10.4382  6.9855 H	1 RES1 0.0
4 C2	4.02  11.5379  7.9154 C.3	1 RES1 0.0
5 H2	4.4848  10.7098  8.16 H	1 RES1 0.0
6 H3	4.0678  12.1726  8.6608 H	1 RES1 0.0
7 H4	4.4462  11.9297  7.1246 H	1 RES1 0.0
8 C3	1.8343  10.7413  8.8603 C.3	1 RES1 0.0
9 H5	2.3444  10.0078  9.2635 H	1 RES1 0.0
10 H6	0.9375  10.4249  8.6252 H	1 RES1 0.0
11 H7	1.7616  11.4807  9.5 H	1 RES1 0.0
12 C4	-0.0574  12.2964  6.9503 C.3	1 RES1 0.0
13 H8	-0.1692  12.1578  7.9344 H	1 RES1 0.0
14 C5	-0.5003  11.0086  6.2533 C.3	1 RES1 0.0
15 H9	-1.3927  10.7558  6.5698 H	1 RES1 0.0
16 H10	0.1345  10.2917  6.46 H	1 RES1 0.0
17 H11	-0.526  11.1539  5.2839 H	1 RES1 0.0
18 C6	-0.961  13.4559  6.5458 C.3	1 RES1 0.0
19 H12	-1.8957  13.2171  6.7166 H	1 RES1 0.0
20 H13	-0.841  13.6467  5.5915 H	1 RES1 0.0
21 H14	-0.7264  14.2508  7.069 H	1 RES1 0.0
22 C7	2.0676  14.2215  7.4647 C.3	1 RES1 0.0
23 H15	1.4238  14.8654  7.0504 H	1 RES1 0.0
24 C8	1.7673  14.2537  8.9651 C.3	1 RES1 0.0
25 H16	1.8568  15.1709  9.296 H	1 RES1 0.0
26 H17	2.3996  13.6721  9.4366 H	1 RES1 0.0
27 H18	0.8531  13.9376  9.1229 H	1 RES1 0.0
28 C9	3.4588  14.7803  7.1549 C.3	1 RES1 0.0
29 H19	3.5058  15.7173  7.4383 H	1 RES1 0.0
30 H20	3.6269  14.7226  6.1911 H	1 RES1 0.0
31 H21	4.1348  14.2585  7.6361 H	1 RES1 0.0
@<TRIPOS>BOND
1 1 2 1
1 1 12 1
1 1 22 1
1 2 3 1
1 2 4 1
1 2 8 1
1 4 5 1
1 4 6 1
1 4 7 1
1 8 9 1
1 8 10 1
1 8 11 1
1 12 13 1
1 12 14 1
1 12 18 1
1 14 15 1
1 14 16 1
1 14 17 1
1 18 19 1
1 18 20 1
1 18 21 1
1 22 23 1
1 22 24 1
1 22 28 1
1 24 25 1
1 24 26 1
1 24 27 1
1 28 29 1
1 28 30 1
1 28 31 1
@<TRIPOS>SUBSTRUCTURE
1 RES1 31

