@<TRIPOS>MOLECULE

22	21	1
SMALL
PartialCharges
****
Generated from molSimplify

@<TRIPOS>ATOM
1 P1	5.463  7.8819  11.2288 P.3	1 RES1 0.0
2 C1	6.1022  6.9062  12.6321 C.3	1 RES1 0.0
3 H1	5.6946  6.0045  12.5914 H	1 RES1 0.0
4 H2	7.078  6.7944  12.511 H	1 RES1 0.0
5 C2	5.8581  7.4746  14.0208 C.3	1 RES1 0.0
6 H3	6.2874  8.3525  14.0952 H	1 RES1 0.0
7 H4	6.2349  6.8689  14.6931 H	1 RES1 0.0
8 H5	4.8939  7.5691  14.1711 H	1 RES1 0.0
9 C3	6.4662  9.4334  11.3424 C.3	1 RES1 0.0
10 H6	6.2069  9.9285  12.1599 H	1 RES1 0.0
11 H7	7.4236  9.1964  11.4213 H	1 RES1 0.0
12 C4	6.2741  10.3277  10.1417 C.3	1 RES1 0.0
13 H8	6.624  9.8805  9.3424 H	1 RES1 0.0
14 H9	6.7557  11.1699  10.2811 H	1 RES1 0.0
15 H10	5.3198  10.513  10.0207 H	1 RES1 0.0
16 C5	3.7834  8.3601  11.6907 C.3	1 RES1 0.0
17 H11	3.7891  8.7622  12.596 H	1 RES1 0.0
18 H12	3.4424  9.0365  11.0546 H	1 RES1 0.0
19 C6	2.8845  7.1525  11.6794 C.3	1 RES1 0.0
20 H13	2.9195  6.7279  10.7965 H	1 RES1 0.0
21 H14	1.964  7.4287  11.872 H	1 RES1 0.0
22 H15	3.1836  6.5149  12.3605 H	1 RES1 0.0
@<TRIPOS>BOND
1 1 2 1
1 1 9 1
1 1 16 1
1 2 3 1
1 2 4 1
1 2 5 1
1 5 6 1
1 5 7 1
1 5 8 1
1 9 10 1
1 9 11 1
1 9 12 1
1 12 13 1
1 12 14 1
1 12 15 1
1 16 17 1
1 16 18 1
1 16 19 1
1 19 20 1
1 19 21 1
1 19 22 1
@<TRIPOS>SUBSTRUCTURE
1 RES1 22

