@<TRIPOS>MOLECULE

83	86	1
SMALL
PartialCharges
****
Generated from molSimplify

@<TRIPOS>ATOM
1 P1	12.5887  6.255  12.5956 P.3	1 RES1 0.0
2 C1	11.6985  6.5766  14.1995 C.3	1 RES1 0.0
3 H1	12.3707  6.5514  14.9267 H	1 RES1 0.0
4 C2	11.1099  7.9943  14.1561 C.3	1 RES1 0.0
5 H2	11.8235  8.6383  13.9626 H	1 RES1 0.0
6 H3	10.4475  8.0499  13.4372 H	1 RES1 0.0
7 C3	10.448  8.3513  15.4871 C.3	1 RES1 0.0
8 H4	11.131  8.38  16.1914 H	1 RES1 0.0
9 H5	10.0463  9.2422  15.4208 H	1 RES1 0.0
10 C4	9.3886  7.3552  15.8651 C.3	1 RES1 0.0
11 H6	8.6519  7.4029  15.2198 H	1 RES1 0.0
12 H7	9.0307  7.5794  16.7499 H	1 RES1 0.0
13 C5	9.9474  5.9433  15.889 C.3	1 RES1 0.0
14 H8	9.2248  5.3103  16.0826 H	1 RES1 0.0
15 H9	10.6122  5.8693  16.6061 H	1 RES1 0.0
16 C6	10.6048  5.5721  14.5433 C.3	1 RES1 0.0
17 H10	10.9905  4.6729  14.6023 H	1 RES1 0.0
18 H11	9.9267  5.5682  13.8354 H	1 RES1 0.0
19 C7	12.5634  4.4076  12.3921 C.3	1 RES1 0.0
20 H12	11.6311  4.1408  12.5966 H	1 RES1 0.0
21 C8	12.8202  3.8933  10.9676 C.3	1 RES1 0.0
22 H13	13.7654  4.0076  10.7346 H	1 RES1 0.0
23 H14	12.2791  4.3985  10.3254 H	1 RES1 0.0
24 C9	12.44  2.4031  10.9212 C.3	1 RES1 0.0
25 H15	11.4917  2.3016  11.1439 H	1 RES1 0.0
26 H16	12.576  2.0606  10.012 H	1 RES1 0.0
27 C10	13.2683  1.5955  11.8868 C.3	1 RES1 0.0
28 H17	14.211  1.6359  11.6232 H	1 RES1 0.0
29 H18	12.9848  0.658  11.8592 H	1 RES1 0.0
30 C11	13.1098  2.14  13.3229 C.3	1 RES1 0.0
31 H19	12.1911  1.9884  13.6271 H	1 RES1 0.0
32 H20	13.7119  1.6515  13.922 H	1 RES1 0.0
33 C12	13.4251  3.6305  13.395 C.3	1 RES1 0.0
34 H21	14.374  3.7765  13.1957 H	1 RES1 0.0
35 H22	13.2519  3.9595  14.3018 H	1 RES1 0.0
36 C13	14.3781  6.623  12.8106 C.ar	1 RES1 0.0
37 C14	15.0915  7.1685  13.8977 C.ar	1 RES1 0.0
38 C15	14.5374  7.7151  15.1966 C.ar	1 RES1 0.0
39 C16	14.2256  9.0975  15.2915 C.ar	1 RES1 0.0
40 C17	14.4688  10.0422  14.134 C.3	1 RES1 0.0
41 H23	14.4864  9.5147  13.2971 H	1 RES1 0.0
42 C18	13.3889  11.1365  13.9994 C.3	1 RES1 0.0
43 H24	12.514  10.7221  13.9349 H	1 RES1 0.0
44 H25	13.5577  11.6604  13.1994 H	1 RES1 0.0
45 H26	13.416  11.7157  14.7774 H	1 RES1 0.0
46 C19	15.8121  10.7141  14.3073 C.3	1 RES1 0.0
47 H27	15.7702  11.334  15.0521 H	1 RES1 0.0
48 H28	16.0389  11.1967  13.4962 H	1 RES1 0.0
49 H29	16.489  10.0413  14.4824 H	1 RES1 0.0
50 C20	13.8506  9.5959  16.5354 C.ar	1 RES1 0.0
51 H30	13.6536  10.5131  16.608 H	1 RES1 0.0
52 C21	13.753  8.8134  17.6673 C.ar	1 RES1 0.0
53 C22	14.0737  7.4623  17.5581 C.ar	1 RES1 0.0
54 H31	14.0171  6.9117  18.3187 H	1 RES1 0.0
55 C23	14.477  6.9111  16.3429 C.ar	1 RES1 0.0
56 C24	14.9181  5.4542  16.3226 C.3	1 RES1 0.0
57 H32	15.0283  5.1846  15.3765 H	1 RES1 0.0
58 C25	16.2658  5.2928  17.0117 C.3	1 RES1 0.0
59 H33	16.1863  5.5557  17.9408 H	1 RES1 0.0
60 H34	16.9227  5.8547  16.5711 H	1 RES1 0.0
61 H35	16.5466  4.3661  16.9601 H	1 RES1 0.0
62 C26	13.8687  4.5262  16.9564 C.3	1 RES1 0.0
63 H36	13.9055  4.6068  17.9224 H	1 RES1 0.0
64 H37	14.0516  3.6081  16.7002 H	1 RES1 0.0
65 H38	12.9837  4.7766  16.643 H	1 RES1 0.0
66 C27	13.3169  9.4412  18.9953 C.3	1 RES1 0.0
67 H39	13.8386  10.2753  19.1114 H	1 RES1 0.0
68 C28	11.8426  9.8343  18.9197 C.3	1 RES1 0.0
69 H40	11.7109  10.4551  18.186 H	1 RES1 0.0
70 H41	11.5795  10.2574  19.753 H	1 RES1 0.0
71 H42	11.3045  9.0419  18.7741 H	1 RES1 0.0
72 C29	13.5597  8.5916  20.2028 C.3	1 RES1 0.0
73 H43	12.9937  7.8047  20.1622 H	1 RES1 0.0
74 H44	13.3527  9.0997  21.0029 H	1 RES1 0.0
75 H45	14.4904  8.32  20.2249 H	1 RES1 0.0
76 C30	16.4837  7.231  13.8153 C.ar	1 RES1 0.0
77 H46	16.965  7.5734  14.547 H	1 RES1 0.0
78 C31	17.1883  6.8039  12.6906 C.ar	1 RES1 0.0
79 H47	18.1273  6.8567  12.6648 H	1 RES1 0.0
80 C32	16.4885  6.3055  11.625 C.ar	1 RES1 0.0
81 H48	16.9458  6.0125  10.8581 H	1 RES1 0.0
82 C33	15.1178  6.2357  11.6778 C.ar	1 RES1 0.0
83 H49	14.6543  5.915  10.9264 H	1 RES1 0.0
@<TRIPOS>BOND
1 1 2 1
1 1 19 1
1 1 36 1
1 2 3 1
1 2 4 1
1 2 16 1
1 4 5 1
1 4 6 1
1 4 7 1
1 7 8 1
1 7 9 1
1 7 10 1
1 10 11 1
1 10 12 1
1 10 13 1
1 13 14 1
1 13 15 1
1 13 16 1
1 16 17 1
1 16 18 1
1 19 20 1
1 19 21 1
1 19 33 1
1 21 22 1
1 21 23 1
1 21 24 1
1 24 25 1
1 24 26 1
1 24 27 1
1 27 28 1
1 27 29 1
1 27 30 1
1 30 31 1
1 30 32 1
1 30 33 1
1 33 34 1
1 33 35 1
1 36 37 ar
1 36 82 ar
1 37 38 1
1 37 76 ar
1 38 39 ar
1 38 55 ar
1 39 40 1
1 39 50 ar
1 40 41 1
1 40 42 1
1 40 46 1
1 42 43 1
1 42 44 1
1 42 45 1
1 46 47 1
1 46 48 1
1 46 49 1
1 50 51 1
1 50 52 ar
1 52 53 ar
1 52 66 1
1 53 54 1
1 53 55 ar
1 55 56 1
1 56 57 1
1 56 58 1
1 56 62 1
1 58 59 1
1 58 60 1
1 58 61 1
1 62 63 1
1 62 64 1
1 62 65 1
1 66 67 1
1 66 68 1
1 66 72 1
1 68 69 1
1 68 70 1
1 68 71 1
1 72 73 1
1 72 74 1
1 72 75 1
1 76 77 1
1 76 78 ar
1 78 79 1
1 78 80 ar
1 80 81 1
1 80 82 ar
1 82 83 1
@<TRIPOS>SUBSTRUCTURE
1 RES1 83

