@<TRIPOS>MOLECULE

46	48	1
SMALL
PartialCharges
****
Generated from molSimplify

@<TRIPOS>ATOM
1 P1	8.1375  6.4518  26.6829 P.3	1 RES1 0.0
2 O1	5.8183  7.3596  27.6784 O.3	1 RES1 0.0
3 O2	10.7974  10.0144  27.1176 O.3	1 RES1 0.0
4 O3	10.4192  6.307  29.8933 O.3	1 RES1 0.0
5 C1	7.566  9.5669  29.9806 C.ar	1 RES1 0.0
6 C2	8.8729  9.292  29.6488 C.ar	1 RES1 0.0
7 C3	9.1962  8.3513  28.652 C.ar	1 RES1 0.0
8 C4	8.1422  7.7132  27.9976 C.ar	1 RES1 0.0
9 C5	6.8186  7.9991  28.3493 C.ar	1 RES1 0.0
10 C6	6.5098  8.9066  29.3409 C.ar	1 RES1 0.0
11 C7	6.3162  6.2421  26.9316 C.3	1 RES1 0.0
12 C8	10.6363  8.0461  28.3904 C.ar	1 RES1 0.0
13 C9	11.2416  6.9769  29.0415 C.ar	1 RES1 0.0
14 C10	12.5787  6.68  28.8158 C.ar	1 RES1 0.0
15 C11	13.3138  7.459  27.9547 C.ar	1 RES1 0.0
16 C12	12.7465  8.5627  27.3285 C.ar	1 RES1 0.0
17 C13	11.4296  8.8845  27.5863 C.ar	1 RES1 0.0
18 C14	11.5616  10.8722  26.2595 C.3	1 RES1 0.0
19 C15	7.1285  8.4591  25.0023 C.3	1 RES1 0.0
20 C16	7.9755  6.3291  23.9504 C.3	1 RES1 0.0
21 C17	9.5621  8.064  24.8703 C.3	1 RES1 0.0
22 C18	8.2183  7.3734  25.0458 C.3	1 RES1 0.0
23 C19	11.0268  5.3304  30.7451 C.3	1 RES1 0.0
24 H1	7.3769  10.2133  30.6521 H	1 RES1 0.0
25 H2	9.5733  9.7451  30.103 H	1 RES1 0.0
26 H3	5.6079  9.0793  29.5809 H	1 RES1 0.0
27 H4	12.9826  5.9396  29.2509 H	1 RES1 0.0
28 H5	14.2235  7.2394  27.7867 H	1 RES1 0.0
29 H6	13.2612  9.0917  26.7306 H	1 RES1 0.0
30 H7	5.8809  6.1993  26.0885 H	1 RES1 0.0
31 H8	6.1517  5.4396  27.4147 H	1 RES1 0.0
32 H9	12.2542  11.2866  26.7636 H	1 RES1 0.0
33 H10	11.697  5.7462  31.2762 H	1 RES1 0.0
34 H11	10.3655  4.9492  31.3122 H	1 RES1 0.0
35 H12	11.4217  4.6495  30.214 H	1 RES1 0.0
36 H13	11.9431  10.3598  25.5574 H	1 RES1 0.0
37 H14	10.9954  11.5408  25.8935 H	1 RES1 0.0
38 H15	9.6707  8.3154  23.9582 H	1 RES1 0.0
39 H16	9.5923  8.8403  25.4164 H	1 RES1 0.0
40 H17	10.2603  7.4715  25.1193 H	1 RES1 0.0
41 H18	8.4835  5.5487  24.1382 H	1 RES1 0.0
42 H19	7.0524  6.1067  23.9222 H	1 RES1 0.0
43 H20	8.2418  6.6841  23.1091 H	1 RES1 0.0
44 H21	6.2748  8.0461  24.9393 H	1 RES1 0.0
45 H22	7.1688  8.9812  25.7944 H	1 RES1 0.0
46 H23	7.2684  9.0171  24.2492 H	1 RES1 0.0
@<TRIPOS>BOND
1 1 8 1
1 1 11 1
1 1 22 1
1 2 9 1
1 2 11 1
1 3 17 1
1 3 18 1
1 4 13 1
1 4 23 1
1 5 6 ar
1 5 10 ar
1 5 24 1
1 6 7 ar
1 6 25 1
1 7 8 ar
1 7 12 1
1 8 9 ar
1 9 10 ar
1 10 26 1
1 11 30 1
1 11 31 1
1 12 13 ar
1 12 17 ar
1 13 14 ar
1 14 15 ar
1 14 27 1
1 15 16 ar
1 15 28 1
1 16 17 ar
1 16 29 1
1 18 32 1
1 18 36 1
1 18 37 1
1 19 22 1
1 19 44 1
1 19 45 1
1 19 46 1
1 20 22 1
1 20 41 1
1 20 42 1
1 20 43 1
1 21 22 1
1 21 38 1
1 21 39 1
1 21 40 1
1 23 33 1
1 23 34 1
1 23 35 1
@<TRIPOS>SUBSTRUCTURE
1 RES1 46

