@<TRIPOS>MOLECULE

130	140	1
SMALL
PartialCharges
****
Generated from molSimplify

@<TRIPOS>ATOM
1 P1	4.217  -0.6529  12.9401 P.3	1 RES1 0.0
2 O1	5.5947  3.6521  9.0779 O.3	1 RES1 0.0
3 O2	8.8765  3.0087  10.1754 O.3	1 RES1 0.0
4 O3	9.9581  4.9364  12.4833 O.3	1 RES1 0.0
5 O4	6.6184  5.1229  11.724 O.3	1 RES1 0.0
6 C1	4.8488  0.6802  11.8836 C.ar	1 RES1 0.0
7 C2	4.3078  1.9488  12.0382 C.ar	1 RES1 0.0
8 H1	3.7331  2.1235  12.7743 H	1 RES1 0.0
9 C3	4.5926  2.9684  11.1361 C.ar	1 RES1 0.0
10 C4	5.4385  2.6865  10.0625 C.ar	1 RES1 0.0
11 C5	6.0961  1.4626  9.9533 C.ar	1 RES1 0.0
12 C6	5.7781  0.4599  10.8616 C.ar	1 RES1 0.0
13 H2	6.1991  -0.3891  10.7877 H	1 RES1 0.0
14 C7	7.1605  1.1918  8.8983 C.3	1 RES1 0.0
15 H3	6.8382  0.49  8.2776 H	1 RES1 0.0
16 H4	7.321  2.016  8.373 H	1 RES1 0.0
17 C8	9.9637  -0.9893  10.2906 C.ar	1 RES1 0.0
18 H5	10.2406  -1.8979  10.2671 H	1 RES1 0.0
19 C9	8.8383  -0.59  9.586 C.ar	1 RES1 0.0
20 H6	8.3202  -1.2413  9.1277 H	1 RES1 0.0
21 C10	8.4534  0.7439  9.5363 C.ar	1 RES1 0.0
22 C11	9.248  1.675  10.2181 C.ar	1 RES1 0.0
23 C12	10.3139  1.2807  11.033 C.ar	1 RES1 0.0
24 C13	10.6839  -0.0634  11.0275 C.ar	1 RES1 0.0
25 H7	11.4369  -0.3463  11.5334 H	1 RES1 0.0
26 C14	10.8995  2.2552  12.0366 C.3	1 RES1 0.0
27 H8	11.2051  3.0734  11.5722 H	1 RES1 0.0
28 H9	11.6792  1.8456  12.4879 H	1 RES1 0.0
29 C15	8.1821  1.8824  14.6668 C.ar	1 RES1 0.0
30 H10	7.7665  1.1826  15.1576 H	1 RES1 0.0
31 C16	9.2109  1.5995  13.7891 C.ar	1 RES1 0.0
32 H11	9.4962  0.7009  13.6781 H	1 RES1 0.0
33 C17	9.8356  2.6099  13.0635 C.ar	1 RES1 0.0
34 C18	9.394  3.9137  13.2512 C.ar	1 RES1 0.0
35 C19	8.3548  4.2317  14.1281 C.ar	1 RES1 0.0
36 C20	7.7625  3.184  14.8262 C.ar	1 RES1 0.0
37 H12	7.0518  3.3717  15.4276 H	1 RES1 0.0
38 C21	7.8097  5.6433  14.2581 C.3	1 RES1 0.0
39 H13	8.0212  6.0007  15.1576 H	1 RES1 0.0
40 H14	8.2373  6.2291  13.5841 H	1 RES1 0.0
41 C22	4.0915  5.5668  14.9718 C.ar	1 RES1 0.0
42 H15	3.4992  5.7231  15.6975 H	1 RES1 0.0
43 C23	5.4394  5.8138  15.1208 C.ar	1 RES1 0.0
44 H16	5.7727  6.1058  15.9615 H	1 RES1 0.0
45 C24	6.3199  5.6399  14.0526 C.ar	1 RES1 0.0
46 C25	5.7796  5.2674  12.8235 C.ar	1 RES1 0.0
47 C26	4.4344  4.9335  12.6688 C.ar	1 RES1 0.0
48 C27	3.5965  5.0913  13.7656 C.ar	1 RES1 0.0
49 H17	2.6751  4.8708  13.6885 H	1 RES1 0.0
50 C28	3.965  4.3357  11.3602 C.3	1 RES1 0.0
51 H18	4.2117  4.9378  10.6147 H	1 RES1 0.0
52 H19	2.9786  4.2485  11.3723 H	1 RES1 0.0
53 C29	4.849  3.3455  7.8719 C.3	1 RES1 0.0
54 H20	5.2714  2.5741  7.417 H	1 RES1 0.0
55 H21	4.8908  4.1207  7.2574 H	1 RES1 0.0
56 C30	3.4043  3.0202  8.16 C.ar	1 RES1 0.0
57 C31	3.0137  1.6922  8.3445 C.ar	1 RES1 0.0
58 H22	3.6325  0.9901  8.1776 H	1 RES1 0.0
59 C32	1.7266  1.3918  8.7694 C.ar	1 RES1 0.0
60 H23	1.4703  0.488  8.9084 H	1 RES1 0.0
61 C33	0.8199  2.4045  8.9896 C.ar	1 RES1 0.0
62 H24	-0.0541  2.1997  9.3022 H	1 RES1 0.0
63 C34	1.1762  3.7064  8.7585 C.ar	1 RES1 0.0
64 H25	0.5368  4.3997  8.8756 H	1 RES1 0.0
65 C35	2.4655  4.0191  8.3541 C.ar	1 RES1 0.0
66 H26	2.7067  4.9264  8.2089 H	1 RES1 0.0
67 C36	9.7798  3.8501  9.4166 C.3	1 RES1 0.0
68 H27	10.7009  3.5002  9.5095 H	1 RES1 0.0
69 H28	9.7636  4.7639  9.7958 H	1 RES1 0.0
70 C37	9.4246  3.9188  7.9473 C.ar	1 RES1 0.0
71 C38	8.3152  4.6311  7.5453 C.ar	1 RES1 0.0
72 H29	7.7686  5.0467  8.2015 H	1 RES1 0.0
73 C39	7.9772  4.7559  6.198 C.ar	1 RES1 0.0
74 H30	7.1991  5.2372  5.9434 H	1 RES1 0.0
75 C40	8.7562  4.1922  5.2648 C.ar	1 RES1 0.0
76 H31	8.5458  4.2962  4.3446 H	1 RES1 0.0
77 C41	9.846  3.4729  5.6362 C.ar	1 RES1 0.0
78 H32	10.3939  3.0731  4.971 H	1 RES1 0.0
79 C42	10.1682  3.3142  6.97 C.ar	1 RES1 0.0
80 H33	10.9159  2.7788  7.2127 H	1 RES1 0.0
81 C43	11.0757  5.5703  13.124 C.3	1 RES1 0.0
82 H34	11.7202  4.8887  13.4424 H	1 RES1 0.0
83 H35	10.7684  6.1  13.9018 H	1 RES1 0.0
84 C44	11.7223  6.4613  12.1134 C.ar	1 RES1 0.0
85 C45	11.1334  7.6461  11.7392 C.ar	1 RES1 0.0
86 H36	10.3232  7.9252  12.1509 H	1 RES1 0.0
87 C46	11.7243  8.4379  10.7569 C.ar	1 RES1 0.0
88 H37	11.3211  9.2588  10.5013 H	1 RES1 0.0
89 C47	12.8868  8.0307  10.1611 C.ar	1 RES1 0.0
90 H38	13.2741  8.5572  9.4707 H	1 RES1 0.0
91 C48	13.4944  6.8747  10.5532 C.ar	1 RES1 0.0
92 H39	14.3201  6.6125  10.1627 H	1 RES1 0.0
93 C49	12.8976  6.0821  11.5262 C.ar	1 RES1 0.0
94 H40	13.311  5.2674  11.7869 H	1 RES1 0.0
95 C50	6.9953  6.3711  11.0951 C.3	1 RES1 0.0
96 H41	7.6951  6.1872  10.4193 H	1 RES1 0.0
97 H42	7.3893  6.9657  11.781 H	1 RES1 0.0
98 C51	5.8577  7.0926  10.4275 C.ar	1 RES1 0.0
99 C52	5.0033  7.8878  11.1622 C.ar	1 RES1 0.0
100 H43	5.1221  7.954  12.1031 H	1 RES1 0.0
101 C53	3.9768  8.5912  10.5572 C.ar	1 RES1 0.0
102 H44	3.3949  9.1301  11.08 H	1 RES1 0.0
103 C54	3.8002  8.5069  9.1836 C.ar	1 RES1 0.0
104 H45	3.1052  8.9979  8.7608 H	1 RES1 0.0
105 C55	4.6281  7.7145  8.4438 C.ar	1 RES1 0.0
106 H46	4.4991  7.6438  7.505 H	1 RES1 0.0
107 C56	5.6541  7.012  9.054 C.ar	1 RES1 0.0
108 H47	6.2272  6.4677  8.5266 H	1 RES1 0.0
109 C57	2.9799  -1.5194  11.9183 C.ar	1 RES1 0.0
110 C58	3.0265  -1.4855  10.5289 C.ar	1 RES1 0.0
111 H48	3.751  -1.0515  10.0941 H	1 RES1 0.0
112 C59	2.0292  -2.0775  9.7692 C.ar	1 RES1 0.0
113 H49	2.0791  -2.0586  8.8204 H	1 RES1 0.0
114 C60	0.967  -2.692  10.3903 C.ar	1 RES1 0.0
115 H50	0.2675  -3.0706  9.8704 H	1 RES1 0.0
116 C61	0.9162  -2.7586  11.7643 C.ar	1 RES1 0.0
117 H51	0.1952  -3.2085  12.1896 H	1 RES1 0.0
118 C62	1.9076  -2.1742  12.5295 C.ar	1 RES1 0.0
119 H52	1.8593  -2.2181  13.4768 H	1 RES1 0.0
120 C63	5.5854  -1.8404  13.1082 C.ar	1 RES1 0.0
121 C64	6.905  -1.4112  13.181 C.ar	1 RES1 0.0
122 H53	7.1014  -0.4851  13.1039 H	1 RES1 0.0
123 C65	7.9365  -2.3166  13.3637 C.ar	1 RES1 0.0
124 H54	8.8369  -2.0134  13.3873 H	1 RES1 0.0
125 C66	7.6555  -3.6571  13.5118 C.ar	1 RES1 0.0
126 H55	8.362  -4.2786  13.6378 H	1 RES1 0.0
127 C67	6.3566  -4.0942  13.4768 C.ar	1 RES1 0.0
128 H56	6.1647  -5.0155  13.608 H	1 RES1 0.0
129 C68	5.3198  -3.1946  13.25 C.ar	1 RES1 0.0
130 H57	4.4252  -3.5098  13.1919 H	1 RES1 0.0
@<TRIPOS>BOND
1 1 6 1
1 1 109 1
1 1 120 1
1 2 10 1
1 2 53 1
1 3 22 1
1 3 67 1
1 4 34 1
1 4 81 1
1 5 46 1
1 5 95 1
1 6 7 ar
1 6 12 ar
1 7 8 1
1 7 9 ar
1 9 10 ar
1 9 50 1
1 10 11 ar
1 11 12 ar
1 11 14 1
1 12 13 1
1 14 15 1
1 14 16 1
1 14 21 1
1 17 18 1
1 17 19 ar
1 17 24 ar
1 19 20 1
1 19 21 ar
1 21 22 ar
1 22 23 ar
1 23 24 ar
1 23 26 1
1 24 25 1
1 26 27 1
1 26 28 1
1 26 33 1
1 29 30 1
1 29 31 ar
1 29 36 ar
1 31 32 1
1 31 33 ar
1 33 34 ar
1 34 35 ar
1 35 36 ar
1 35 38 1
1 36 37 1
1 38 39 1
1 38 40 1
1 38 45 1
1 41 42 1
1 41 43 ar
1 41 48 ar
1 43 44 1
1 43 45 ar
1 45 46 ar
1 46 47 ar
1 47 48 ar
1 47 50 1
1 48 49 1
1 50 51 1
1 50 52 1
1 53 54 1
1 53 55 1
1 53 56 1
1 56 57 ar
1 56 65 ar
1 57 58 1
1 57 59 ar
1 59 60 1
1 59 61 ar
1 61 62 1
1 61 63 ar
1 63 64 1
1 63 65 ar
1 65 66 1
1 67 68 1
1 67 69 1
1 67 70 1
1 70 71 ar
1 70 79 ar
1 71 72 1
1 71 73 ar
1 73 74 1
1 73 75 ar
1 75 76 1
1 75 77 ar
1 77 78 1
1 77 79 ar
1 79 80 1
1 81 82 1
1 81 83 1
1 81 84 1
1 84 85 ar
1 84 93 ar
1 85 86 1
1 85 87 ar
1 87 88 1
1 87 89 ar
1 89 90 1
1 89 91 ar
1 91 92 1
1 91 93 ar
1 93 94 1
1 95 96 1
1 95 97 1
1 95 98 1
1 98 99 ar
1 98 107 ar
1 99 100 1
1 99 101 ar
1 101 102 1
1 101 103 ar
1 103 104 1
1 103 105 ar
1 105 106 1
1 105 107 ar
1 107 108 1
1 109 110 ar
1 109 118 ar
1 110 111 1
1 110 112 ar
1 112 113 1
1 112 114 ar
1 114 115 1
1 114 116 ar
1 116 117 1
1 116 118 ar
1 118 119 1
1 120 121 ar
1 120 129 ar
1 121 122 1
1 121 123 ar
1 123 124 1
1 123 125 ar
1 125 126 1
1 125 127 ar
1 127 128 1
1 127 129 ar
1 129 130 1
@<TRIPOS>SUBSTRUCTURE
1 RES1 130

