@<TRIPOS>MOLECULE

32	33	1
SMALL
PartialCharges
****
Generated from molSimplify

@<TRIPOS>ATOM
1 P1	0.2772  6.8902  3.4304 P.3	1 RES1 0.0
2 O1	-2.7736  4.5621  5.9556 O.2	1 RES1 0.0
3 C1	-0.9562  5.7816  4.1963 C.3	1 RES1 0.0
4 C2	-2.1875  6.5169  4.7021 C.3	1 RES1 0.0
5 C3	-3.0917  5.6319  5.5176 C.2	1 RES1 0.0
6 C4	-0.5445  7.4499  1.9099 C.ar	1 RES1 0.0
7 C5	-1.4648  8.4942  2.0056 C.ar	1 RES1 0.0
8 C6	-2.1957  8.8969  0.8962 C.ar	1 RES1 0.0
9 C7	-1.9872  8.2819  -0.3276 C.ar	1 RES1 0.0
10 C8	-1.064  7.2534  -0.4381 C.ar	1 RES1 0.0
11 C9	-0.3503  6.8284  0.6774 C.ar	1 RES1 0.0
12 C10	1.6109  5.7993  2.8713 C.ar	1 RES1 0.0
13 C11	2.6223  6.3386  2.0664 C.ar	1 RES1 0.0
14 C12	3.6515  5.5289  1.606 C.ar	1 RES1 0.0
15 C13	3.6941  4.1878  1.956 C.ar	1 RES1 0.0
16 C14	2.7015  3.6523  2.7577 C.ar	1 RES1 0.0
17 C15	1.6588  4.4493  3.2158 C.ar	1 RES1 0.0
18 H1	-1.1961  5.1126  3.5554 H	1 RES1 0.0
19 H2	-0.463  5.3651  4.9701 H	1 RES1 0.0
20 H3	-2.7174  6.905  4.0019 H	1 RES1 0.0
21 H4	-1.9155  7.2753  5.2941 H	1 RES1 0.0
22 H5	-3.9621  5.987  5.6509 H	1 RES1 0.0
23 H6	-1.5781  8.9465  2.8447 H	1 RES1 0.0
24 H7	-2.7812  9.5668  1.0222 H	1 RES1 0.0
25 H8	-2.44  8.5597  -1.0318 H	1 RES1 0.0
26 H9	-0.9402  6.8117  -1.2633 H	1 RES1 0.0
27 H10	0.2767  6.1262  0.6104 H	1 RES1 0.0
28 H11	2.6191  7.2517  1.8322 H	1 RES1 0.0
29 H12	4.3216  5.8767  1.0511 H	1 RES1 0.0
30 H13	4.3903  3.6119  1.6683 H	1 RES1 0.0
31 H14	2.7055  2.7361  2.9894 H	1 RES1 0.0
32 H15	0.9835  4.0316  3.7223 H	1 RES1 0.0
@<TRIPOS>BOND
1 1 3 1
1 1 6 1
1 1 12 1
1 2 5 2
1 3 4 1
1 3 18 1
1 3 19 1
1 4 5 1
1 4 20 1
1 4 21 1
1 5 22 1
1 6 7 ar
1 6 11 ar
1 7 8 ar
1 7 23 1
1 8 9 ar
1 8 24 1
1 9 10 ar
1 9 25 1
1 10 11 ar
1 10 26 1
1 11 27 1
1 12 13 ar
1 12 17 ar
1 13 14 ar
1 13 28 1
1 14 15 ar
1 14 29 1
1 15 16 ar
1 15 30 1
1 16 17 ar
1 16 31 1
1 17 32 1
@<TRIPOS>SUBSTRUCTURE
1 RES1 32

