@<TRIPOS>MOLECULE

49	49	1
SMALL
PartialCharges
****
Generated from molSimplify

@<TRIPOS>ATOM
1 P1	11.6395  7.136  4.006 P.3	1 RES1 0.0
2 O1	14.7697  7.3825  5.334 O.3	1 RES1 0.0
3 O2	13.5185  3.8738  2.5133 O.3	1 RES1 0.0
4 C1	12.7816  5.7178  4.4651 C.3	1 RES1 0.0
5 H1	12.8845  5.7232  5.4301 H	1 RES1 0.0
6 H2	12.3329  4.8907  4.2304 H	1 RES1 0.0
7 C2	10.6907  6.4525  2.505 C.3	1 RES1 0.0
8 C3	9.6129  7.454  2.085 C.3	1 RES1 0.0
9 H3	9.3403  7.2717  1.1832 H	1 RES1 0.0
10 H4	9.9664  8.345  2.1385 H	1 RES1 0.0
11 H5	8.8568  7.3748  2.6711 H	1 RES1 0.0
12 C4	10.0774  5.0717  2.645 C.3	1 RES1 0.0
13 H6	9.65  4.8255  1.8215 H	1 RES1 0.0
14 H7	9.4287  5.0808  3.3533 H	1 RES1 0.0
15 H8	10.766  4.4354  2.8509 H	1 RES1 0.0
16 C5	11.7229  6.4169  1.3795 C.3	1 RES1 0.0
17 H9	12.4147  5.7885  1.6005 H	1 RES1 0.0
18 H10	12.107  7.2896  1.2697 H	1 RES1 0.0
19 H11	11.2976  6.1484  0.5628 H	1 RES1 0.0
20 C6	10.5355  7.1174  5.5687 C.3	1 RES1 0.0
21 C7	9.3491  8.0424  5.3711 C.3	1 RES1 0.0
22 H12	8.9212  8.1991  6.2152 H	1 RES1 0.0
23 H13	8.7231  7.6356  4.7657 H	1 RES1 0.0
24 H14	9.6506  8.8765  5.0059 H	1 RES1 0.0
25 C8	11.4131  7.7112  6.6764 C.3	1 RES1 0.0
26 H15	11.7277  8.5771  6.406 H	1 RES1 0.0
27 H16	12.1625  7.1333  6.8343 H	1 RES1 0.0
28 H17	10.8974  7.7952  7.4821 H	1 RES1 0.0
29 C9	10.0482  5.7433  6.0203 C.3	1 RES1 0.0
30 H18	9.653  5.8152  6.8933 H	1 RES1 0.0
31 H19	10.7896  5.1355  6.0546 H	1 RES1 0.0
32 H20	9.3933  5.4152  5.3999 H	1 RES1 0.0
33 C10	14.1633  5.6806  3.8557 C.ar	1 RES1 0.0
34 C11	15.1689  6.5341  4.3128 C.ar	1 RES1 0.0
35 C12	16.458  6.4824  3.8241 C.ar	1 RES1 0.0
36 H21	17.1083  7.0666  4.1439 H	1 RES1 0.0
37 C13	16.7666  5.552  2.8578 C.ar	1 RES1 0.0
38 H22	17.6304  5.5226  2.5133 H	1 RES1 0.0
39 C14	15.8205  4.6626  2.3884 C.ar	1 RES1 0.0
40 H23	16.0425  4.0334  1.7405 H	1 RES1 0.0
41 C15	14.5349  4.723  2.9017 C.ar	1 RES1 0.0
42 C16	15.6297  8.477  5.6373 C.3	1 RES1 0.0
43 H24	16.4622  8.1439  5.9791 H	1 RES1 0.0
44 H25	15.2139  9.038  6.2962 H	1 RES1 0.0
45 H26	15.7928  8.9868  4.8399 H	1 RES1 0.0
46 C17	13.838  2.813  1.6224 C.3	1 RES1 0.0
47 H27	14.075  3.1745  0.7659 H	1 RES1 0.0
48 H28	13.0774  2.2352  1.5277 H	1 RES1 0.0
49 H29	14.5784  2.3124  1.9738 H	1 RES1 0.0
@<TRIPOS>BOND
1 1 4 1
1 1 7 1
1 1 20 1
1 2 34 1
1 2 42 1
1 3 41 1
1 3 46 1
1 4 5 1
1 4 6 1
1 4 33 1
1 7 8 1
1 7 12 1
1 7 16 1
1 8 9 1
1 8 10 1
1 8 11 1
1 12 13 1
1 12 14 1
1 12 15 1
1 16 17 1
1 16 18 1
1 16 19 1
1 20 21 1
1 20 25 1
1 20 29 1
1 21 22 1
1 21 23 1
1 21 24 1
1 25 26 1
1 25 27 1
1 25 28 1
1 29 30 1
1 29 31 1
1 29 32 1
1 33 34 ar
1 33 41 ar
1 34 35 ar
1 35 36 1
1 35 37 ar
1 37 38 1
1 37 39 ar
1 39 40 1
1 39 41 ar
1 42 43 1
1 42 44 1
1 42 45 1
1 46 47 1
1 46 48 1
1 46 49 1
@<TRIPOS>SUBSTRUCTURE
1 RES1 49

