@<TRIPOS>MOLECULE

43	45	1
SMALL
PartialCharges
****
Generated from molSimplify

@<TRIPOS>ATOM
1 P1	4.2173  1.2803  1.6557 P.3	1 RES1 0.0
2 C1	4.841  2.9899  1.8598 C.ar	1 RES1 0.0
3 C2	6.1092  3.21  2.4458 C.ar	1 RES1 0.0
4 C3	7.0154  2.0866  2.901 C.3	1 RES1 0.0
5 H1	6.7142  1.7564  3.7733 H	1 RES1 0.0
6 H2	7.9341  2.4189  2.9776 H	1 RES1 0.0
7 H3	6.9859  1.3576  2.2472 H	1 RES1 0.0
8 C4	6.523  4.5284  2.6274 C.ar	1 RES1 0.0
9 H4	7.3739  4.6951  3.0165 H	1 RES1 0.0
10 C5	5.7359  5.5962  2.2592 C.ar	1 RES1 0.0
11 H5	6.0452  6.4831  2.4057 H	1 RES1 0.0
12 C6	4.5044  5.3903  1.6809 C.ar	1 RES1 0.0
13 H6	3.9659  6.1279  1.4189 H	1 RES1 0.0
14 C7	4.0584  4.086  1.4842 C.ar	1 RES1 0.0
15 H7	3.2078  3.9378  1.0879 H	1 RES1 0.0
16 C8	2.437  1.3838  1.2419 C.ar	1 RES1 0.0
17 C9	2.0035  1.8447  -0.0099 C.ar	1 RES1 0.0
18 C10	2.9412  2.2457  -1.1141 C.3	1 RES1 0.0
19 H8	3.0811  1.4851  -1.7157 H	1 RES1 0.0
20 H9	3.7997  2.5202  -0.7304 H	1 RES1 0.0
21 H10	2.5532  2.992  -1.6163 H	1 RES1 0.0
22 C11	0.6346  1.8959  -0.2608 C.ar	1 RES1 0.0
23 H11	0.331  2.2413  -1.0925 H	1 RES1 0.0
24 C12	-0.2908  1.4601  0.6588 C.ar	1 RES1 0.0
25 H12	-1.2191  1.5167  0.4647 H	1 RES1 0.0
26 C13	0.1362  0.9403  1.8676 C.ar	1 RES1 0.0
27 H13	-0.4955  0.6069  2.4943 H	1 RES1 0.0
28 C14	1.4883  0.9087  2.1607 C.ar	1 RES1 0.0
29 H14	1.7791  0.5601  2.9947 H	1 RES1 0.0
30 C15	4.2917  0.6134  3.3592 C.ar	1 RES1 0.0
31 C16	3.8404  1.3369  4.4889 C.ar	1 RES1 0.0
32 C17	3.2162  2.7011  4.4388 C.3	1 RES1 0.0
33 H15	2.6773  2.8428  5.2451 H	1 RES1 0.0
34 H16	2.6438  2.7698  3.6459 H	1 RES1 0.0
35 H17	3.9209  3.381  4.3934 H	1 RES1 0.0
36 C18	4.0045  0.7387  5.7447 C.ar	1 RES1 0.0
37 H18	3.7045  1.2018  6.5179 H	1 RES1 0.0
38 C19	4.5914  -0.5056  5.8934 C.ar	1 RES1 0.0
39 H19	4.6848  -0.8848  6.7588 H	1 RES1 0.0
40 C20	5.0385  -1.1931  4.7886 C.ar	1 RES1 0.0
41 H20	5.4517  -2.0419  4.8892 H	1 RES1 0.0
42 C21	4.8821  -0.6374  3.5266 C.ar	1 RES1 0.0
43 H21	5.1816  -1.119  2.7647 H	1 RES1 0.0
@<TRIPOS>BOND
1 1 2 1
1 1 16 1
1 1 30 1
1 2 3 ar
1 2 14 ar
1 3 4 1
1 3 8 ar
1 4 5 1
1 4 6 1
1 4 7 1
1 8 9 1
1 8 10 ar
1 10 11 1
1 10 12 ar
1 12 13 1
1 12 14 ar
1 14 15 1
1 16 17 ar
1 16 28 ar
1 17 18 1
1 17 22 ar
1 18 19 1
1 18 20 1
1 18 21 1
1 22 23 1
1 22 24 ar
1 24 25 1
1 24 26 ar
1 26 27 1
1 26 28 ar
1 28 29 1
1 30 31 ar
1 30 42 ar
1 31 32 1
1 31 36 ar
1 32 33 1
1 32 34 1
1 32 35 1
1 36 37 1
1 36 38 ar
1 38 39 1
1 38 40 ar
1 40 41 1
1 40 42 ar
1 42 43 1
@<TRIPOS>SUBSTRUCTURE
1 RES1 43

