@<TRIPOS>MOLECULE

25	27	1
SMALL
PartialCharges
****
Generated from molSimplify

@<TRIPOS>ATOM
1 P1	1.9186  1.2378  4.2304 P.3	1 RES1 0.0
2 S1	4.6137  1.0964  2.6664 S.3	1 RES1 0.0
3 S2	1.2965  4.0992  5.1368 S.3	1 RES1 0.0
4 S3	4.2977  2.0232  6.092 S.3	1 RES1 0.0
5 C1	2.9965  0.7162  2.8803 C.2	1 RES1 0.0
6 C2	2.4197  -0.2971  1.7854 C.2	1 RES1 0.0
7 H1	1.5815  -0.6914  1.7035 H	1 RES1 0.0
8 C3	3.6754  -0.4173  0.9094 C.2	1 RES1 0.0
9 H2	3.6877  -0.9514  0.1471 H	1 RES1 0.0
10 C4	4.7505  0.2741  1.2872 C.2	1 RES1 0.0
11 H3	5.5346  0.2812  0.7857 H	1 RES1 0.0
12 C5	1.9224  3.0468  3.9519 C.2	1 RES1 0.0
13 C6	2.2267  3.7471  2.7867 C.2	1 RES1 0.0
14 H4	2.5636  3.3687  2.006 H	1 RES1 0.0
15 C7	1.9418  5.1423  2.9806 C.2	1 RES1 0.0
16 H5	2.0981  5.7807  2.322 H	1 RES1 0.0
17 C8	1.4406  5.4518  4.1592 C.2	1 RES1 0.0
18 H6	1.1996  6.3112  4.415 H	1 RES1 0.0
19 C9	2.9117  1.1141  5.7406 C.2	1 RES1 0.0
20 C10	2.4768  0.1238  6.8523 C.2	1 RES1 0.0
21 H7	1.7642  -0.4739  6.8774 H	1 RES1 0.0
22 C11	3.5447  0.4067  7.8787 C.2	1 RES1 0.0
23 H8	3.557  -0.0354  8.6979 H	1 RES1 0.0
24 C12	4.4687  1.3103  7.5728 C.2	1 RES1 0.0
25 H9	5.1619  1.5278  8.1529 H	1 RES1 0.0
@<TRIPOS>BOND
1 1 5 1
1 1 12 1
1 1 19 1
1 2 5 1
1 2 10 1
1 3 12 1
1 3 17 1
1 4 19 1
1 4 24 1
1 5 6 2
1 6 7 1
1 6 8 1
1 8 9 1
1 8 10 2
1 10 11 1
1 12 13 2
1 13 14 1
1 13 15 1
1 15 16 1
1 15 17 2
1 17 18 1
1 19 20 2
1 20 21 1
1 20 22 1
1 22 23 1
1 22 24 2
1 24 25 1
@<TRIPOS>SUBSTRUCTURE
1 RES1 25

