@<TRIPOS>MOLECULE

46	48	1
SMALL
PartialCharges
****
Generated from molSimplify

@<TRIPOS>ATOM
1 P1	2.0595  4.8455  4.0214 P.3	1 RES1 0.0
2 O1	6.1332  7.7993  7.2432 O.3	1 RES1 0.0
3 O2	3.6869  5.2583  -1.7112 O.3	1 RES1 0.0
4 O3	2.5698  -0.9148  5.5497 O.3	1 RES1 0.0
5 C1	3.305  5.7253  5.0048 C.ar	1 RES1 0.0
6 C2	4.6585  5.729  4.6947 C.ar	1 RES1 0.0
7 H1	4.961  5.2494  3.9328 H	1 RES1 0.0
8 C3	5.5706  6.4108  5.4629 C.ar	1 RES1 0.0
9 H2	6.493  6.3815  5.2385 H	1 RES1 0.0
10 C4	5.1488  7.1384  6.5629 C.ar	1 RES1 0.0
11 C5	3.8207  7.1409  6.9197 C.ar	1 RES1 0.0
12 H3	3.529  7.6147  7.6895 H	1 RES1 0.0
13 C6	2.9118  6.4369  6.1344 C.ar	1 RES1 0.0
14 H4	1.9922  6.4444  6.3775 H	1 RES1 0.0
15 C7	5.7577  8.5085  8.4124 C.3	1 RES1 0.0
16 H5	5.151  9.238  8.1709 H	1 RES1 0.0
17 H6	6.5583  8.8781  8.8409 H	1 RES1 0.0
18 H7	5.3073  7.8997  9.0326 H	1 RES1 0.0
19 C8	2.6074  4.9336  2.2889 C.ar	1 RES1 0.0
20 C9	3.7022  4.2273  1.8075 C.ar	1 RES1 0.0
21 H8	4.1877  3.6708  2.4027 H	1 RES1 0.0
22 C10	4.1039  4.3091  0.4939 C.ar	1 RES1 0.0
23 H9	4.861  3.8225  0.1917 H	1 RES1 0.0
24 C11	3.3871  5.1172  -0.3895 C.ar	1 RES1 0.0
25 C12	2.2959  5.8141  0.0654 C.ar	1 RES1 0.0
26 H10	1.8075  6.3618  -0.536 H	1 RES1 0.0
27 C13	1.9012  5.7317  1.3712 C.ar	1 RES1 0.0
28 H11	1.139  6.2204  1.6625 H	1 RES1 0.0
29 C14	4.7309  4.4498  -2.25 C.3	1 RES1 0.0
30 H12	4.8096  4.6154  -3.2129 H	1 RES1 0.0
31 H13	4.523  3.504  -2.0973 H	1 RES1 0.0
32 H14	5.5781  4.6737  -1.8106 H	1 RES1 0.0
33 C15	2.3505  3.0877  4.4329 C.ar	1 RES1 0.0
34 C16	2.0188  2.0945  3.5199 C.ar	1 RES1 0.0
35 H15	1.7354  2.3436  2.6473 H	1 RES1 0.0
36 C17	2.092  0.751  3.8502 C.ar	1 RES1 0.0
37 H16	1.8721  0.0876  3.2067 H	1 RES1 0.0
38 C18	2.4855  0.3795  5.1201 C.ar	1 RES1 0.0
39 C19	2.8289  1.3631  6.0378 C.ar	1 RES1 0.0
40 H17	3.119  1.1116  6.9073 H	1 RES1 0.0
41 C20	2.7571  2.6953  5.7044 C.ar	1 RES1 0.0
42 H18	2.9862  3.3542  6.3495 H	1 RES1 0.0
43 C21	2.1183  -1.9325  4.6589 C.3	1 RES1 0.0
44 H19	2.6772  -1.9343  3.8549 H	1 RES1 0.0
45 H20	1.1872  -1.7594  4.4096 H	1 RES1 0.0
46 H21	2.1822  -2.8049  5.1014 H	1 RES1 0.0
@<TRIPOS>BOND
1 1 5 1
1 1 19 1
1 1 33 1
1 2 10 1
1 2 15 1
1 3 24 1
1 3 29 1
1 4 38 1
1 4 43 1
1 5 6 ar
1 5 13 ar
1 6 7 1
1 6 8 ar
1 8 9 1
1 8 10 ar
1 10 11 ar
1 11 12 1
1 11 13 ar
1 13 14 1
1 15 16 1
1 15 17 1
1 15 18 1
1 19 20 ar
1 19 27 ar
1 20 21 1
1 20 22 ar
1 22 23 1
1 22 24 ar
1 24 25 ar
1 25 26 1
1 25 27 ar
1 27 28 1
1 29 30 1
1 29 31 1
1 29 32 1
1 33 34 ar
1 33 41 ar
1 34 35 1
1 34 36 ar
1 36 37 1
1 36 38 ar
1 38 39 ar
1 39 40 1
1 39 41 ar
1 41 42 1
1 43 44 1
1 43 45 1
1 43 46 1
@<TRIPOS>SUBSTRUCTURE
1 RES1 46

