@<TRIPOS>MOLECULE

51	52	1
SMALL
PartialCharges
****
Generated from molSimplify

@<TRIPOS>ATOM
1 P1	2.2329  2.7191  10.9488 P.3	1 RES1 0.0
2 C1	0.688  2.8651  11.9459 C.ar	1 RES1 0.0
3 C2	-0.5271  3.3699  11.4351 C.ar	1 RES1 0.0
4 C3	-0.7456  3.8093  9.999 C.3	1 RES1 0.0
5 H1	0.0508  3.5175  9.4686 H	1 RES1 0.0
6 C4	-1.984  3.1423  9.3826 C.3	1 RES1 0.0
7 H2	-1.9113  2.1694  9.4768 H	1 RES1 0.0
8 H3	-2.042  3.3749  8.4323 H	1 RES1 0.0
9 H4	-2.7883  3.4571  9.8451 H	1 RES1 0.0
10 C5	-0.8367  5.3322  9.8996 C.3	1 RES1 0.0
11 H5	-1.6124  5.6471  10.4099 H	1 RES1 0.0
12 H6	-0.9351  5.5931  8.9595 H	1 RES1 0.0
13 H7	-0.0216  5.7332  10.2658 H	1 RES1 0.0
14 C6	-1.5943  3.5175  12.3263 C.ar	1 RES1 0.0
15 H8	-2.4175  3.8658  12.0043 H	1 RES1 0.0
16 C7	-1.4933  3.1731  13.6579 C.ar	1 RES1 0.0
17 H9	-2.2399  3.2836  14.2356 H	1 RES1 0.0
18 C8	-0.3043  2.6664  14.1513 C.ar	1 RES1 0.0
19 H10	-0.23  2.4187  15.0656 H	1 RES1 0.0
20 C9	0.7792  2.524  13.2969 C.ar	1 RES1 0.0
21 H11	1.5995  2.1874  13.6381 H	1 RES1 0.0
22 C10	2.4973  4.4078  10.2918 C.ar	1 RES1 0.0
23 C11	2.6773  5.5016  11.1658 C.ar	1 RES1 0.0
24 C12	2.6816  5.3772  12.6893 C.3	1 RES1 0.0
25 H12	2.7248  4.4056  12.9194 H	1 RES1 0.0
26 C13	1.3827  5.9452  13.2766 C.3	1 RES1 0.0
27 H13	1.3201  6.9014  13.0684 H	1 RES1 0.0
28 H14	1.3825  5.8219  14.2487 H	1 RES1 0.0
29 H15	0.6158  5.4749  12.8883 H	1 RES1 0.0
30 C14	3.9066  6.066  13.3041 C.3	1 RES1 0.0
31 H16	4.7165  5.7705  12.8376 H	1 RES1 0.0
32 H17	3.9721  5.8283  14.252 H	1 RES1 0.0
33 H18	3.8144  7.0376  13.2157 H	1 RES1 0.0
34 C15	2.8541  6.7665  10.612 C.ar	1 RES1 0.0
35 H19	2.9454  7.5144  11.1907 H	1 RES1 0.0
36 C16	2.9009  6.9657  9.2422 C.ar	1 RES1 0.0
37 H20	3.0216  7.8409  8.894 H	1 RES1 0.0
38 C17	2.7705  5.8938  8.3862 C.ar	1 RES1 0.0
39 H21	2.8198  6.0224  7.4468 H	1 RES1 0.0
40 C18	2.5677  4.6292  8.91 C.ar	1 RES1 0.0
41 H22	2.4742  3.8928  8.3177 H	1 RES1 0.0
42 C19	1.8822  1.6179  9.4938 C.3	1 RES1 0.0
43 H23	1.4389  2.1707  8.7892 H	1 RES1 0.0
44 C20	0.944  0.4627  9.8474 C.3	1 RES1 0.0
45 H24	0.7833  -0.0835  9.0495 H	1 RES1 0.0
46 H25	0.0925  0.8212  10.1741 H	1 RES1 0.0
47 H26	1.3542  -0.09  10.5457 H	1 RES1 0.0
48 C21	3.2028  1.086  8.9164 C.3	1 RES1 0.0
49 H27	3.6223  0.4819  9.5635 H	1 RES1 0.0
50 H28	3.8045  1.8365  8.7319 H	1 RES1 0.0
51 H29	3.024  0.6002  8.0853 H	1 RES1 0.0
@<TRIPOS>BOND
1 1 2 1
1 1 22 1
1 1 42 1
1 2 3 ar
1 2 20 ar
1 3 4 1
1 3 14 ar
1 4 5 1
1 4 6 1
1 4 10 1
1 6 7 1
1 6 8 1
1 6 9 1
1 10 11 1
1 10 12 1
1 10 13 1
1 14 15 1
1 14 16 ar
1 16 17 1
1 16 18 ar
1 18 19 1
1 18 20 ar
1 20 21 1
1 22 23 ar
1 22 40 ar
1 23 24 1
1 23 34 ar
1 24 25 1
1 24 26 1
1 24 30 1
1 26 27 1
1 26 28 1
1 26 29 1
1 30 31 1
1 30 32 1
1 30 33 1
1 34 35 1
1 34 36 ar
1 36 37 1
1 36 38 ar
1 38 39 1
1 38 40 ar
1 40 41 1
1 42 43 1
1 42 44 1
1 42 48 1
1 44 45 1
1 44 46 1
1 44 47 1
1 48 49 1
1 48 50 1
1 48 51 1
@<TRIPOS>SUBSTRUCTURE
1 RES1 51

