@<TRIPOS>MOLECULE

46	48	1
SMALL
PartialCharges
****
Generated from molSimplify

@<TRIPOS>ATOM
1 C1	9.7263  -0.2015  3.4682 C.3	1 RES1 0.0
2 H1	10.6891  -0.0876  3.489 H	1 RES1 0.0
3 H2	9.3487  0.3925  4.1349 H	1 RES1 0.0
4 C2	9.4018  -1.6372  3.8628 C.ar	1 RES1 0.0
5 C3	8.3184  -1.8953  4.7143 C.ar	1 RES1 0.0
6 C4	8.0547  -3.2176  5.0944 C.ar	1 RES1 0.0
7 H3	7.3243  -3.389  5.6447 H	1 RES1 0.0
8 C5	8.8338  -4.2653  4.6821 C.ar	1 RES1 0.0
9 C6	9.9081  -3.9948  3.8473 C.ar	1 RES1 0.0
10 H4	10.4472  -4.698  3.5659 H	1 RES1 0.0
11 C7	10.2046  -2.6996  3.4163 C.ar	1 RES1 0.0
12 C8	7.403  -0.8176  5.2481 C.3	1 RES1 0.0
13 H5	7.903  -0.219  5.8067 H	1 RES1 0.0
14 H6	6.6986  -1.2214  5.761 H	1 RES1 0.0
15 H7	7.0236  -0.3277  4.5139 H	1 RES1 0.0
16 C9	8.543  -5.6917  5.1276 C.3	1 RES1 0.0
17 H8	8.3308  -5.6985  6.0642 H	1 RES1 0.0
18 H9	9.3151  -6.24  4.9708 H	1 RES1 0.0
19 H10	7.7986  -6.0367  4.6292 H	1 RES1 0.0
20 C10	11.3571  -2.5018  2.4838 C.3	1 RES1 0.0
21 H11	11.9459  -3.2576  2.5368 H	1 RES1 0.0
22 H12	11.835  -1.7068  2.7299 H	1 RES1 0.0
23 H13	11.0303  -2.4147  1.5856 H	1 RES1 0.0
24 C11	8.9659  2.1277  1.893 C.ar	1 RES1 0.0
25 C12	9.776  2.8827  2.7206 C.ar	1 RES1 0.0
26 H14	10.3536  2.4638  3.3177 H	1 RES1 0.0
27 C13	9.724  4.2706  2.6562 C.ar	1 RES1 0.0
28 H15	10.2771  4.7751  3.2076 H	1 RES1 0.0
29 C14	8.8741  4.9018  1.7964 C.ar	1 RES1 0.0
30 H16	8.8392  5.83  1.7725 H	1 RES1 0.0
31 C15	8.0692  4.1626  0.9678 C.ar	1 RES1 0.0
32 H17	7.4837  4.5928  0.3852 H	1 RES1 0.0
33 C16	8.124  2.7778  0.9937 C.ar	1 RES1 0.0
34 H18	7.5987  2.2815  0.4091 H	1 RES1 0.0
35 C17	7.4223  -0.3343  1.7341 C.ar	1 RES1 0.0
36 C18	6.2957  0.4221  2.0789 C.ar	1 RES1 0.0
37 H19	6.3908  1.316  2.3156 H	1 RES1 0.0
38 C19	5.04  -0.1602  2.0685 C.ar	1 RES1 0.0
39 H20	4.2943  0.347  2.2959 H	1 RES1 0.0
40 C20	4.8885  -1.4842  1.7217 C.ar	1 RES1 0.0
41 H21	4.0421  -1.8715  1.7196 H	1 RES1 0.0
42 C21	5.9811  -2.233  1.3821 C.ar	1 RES1 0.0
43 H22	5.874  -3.1279  1.1547 H	1 RES1 0.0
44 C22	7.2534  -1.667  1.3748 C.ar	1 RES1 0.0
45 H23	7.9893  -2.1799  1.1298 H	1 RES1 0.0
46 P1	9.1118  0.3223  1.8016 P.3	1 RES1 0.0
@<TRIPOS>BOND
1 1 2 1
1 1 3 1
1 1 4 1
1 1 46 1
1 4 5 ar
1 4 11 ar
1 5 6 ar
1 5 12 1
1 6 7 1
1 6 8 ar
1 8 9 ar
1 8 16 1
1 9 10 1
1 9 11 ar
1 11 20 1
1 12 13 1
1 12 14 1
1 12 15 1
1 16 17 1
1 16 18 1
1 16 19 1
1 20 21 1
1 20 22 1
1 20 23 1
1 24 25 ar
1 24 33 ar
1 24 46 1
1 25 26 1
1 25 27 ar
1 27 28 1
1 27 29 ar
1 29 30 1
1 29 31 ar
1 31 32 1
1 31 33 ar
1 33 34 1
1 35 36 ar
1 35 44 ar
1 35 46 1
1 36 37 1
1 36 38 ar
1 38 39 1
1 38 40 ar
1 40 41 1
1 40 42 ar
1 42 43 1
1 42 44 ar
1 44 45 1
@<TRIPOS>SUBSTRUCTURE
1 RES1 46

