@<TRIPOS>MOLECULE

39	40	1
SMALL
PartialCharges
****
Generated from molSimplify

@<TRIPOS>ATOM
1 P1	13.0012  0.1158  2.9096 P.3	1 RES1 0.0
2 C1	13.282  -1.5896  2.2936 C.ar	1 RES1 0.0
3 C2	13.255  -2.6878  3.1613 C.ar	1 RES1 0.0
4 C3	12.9399  -2.5714  4.6285 C.3	1 RES1 0.0
5 H1	13.4238  -1.8072  5.0072 H	1 RES1 0.0
6 H2	13.2164  -3.3928  5.0869 H	1 RES1 0.0
7 H3	11.9757  -2.4391  4.745 H	1 RES1 0.0
8 C4	13.5441  -3.9584  2.6523 C.ar	1 RES1 0.0
9 H4	13.5226  -4.7076  3.2364 H	1 RES1 0.0
10 C5	13.8602  -4.15  1.3216 C.ar	1 RES1 0.0
11 H5	14.0517  -5.0215  0.9965 H	1 RES1 0.0
12 C6	13.8952  -3.0669  0.4645 C.ar	1 RES1 0.0
13 H6	14.1093  -3.1922  -0.4523 H	1 RES1 0.0
14 C7	13.616  -1.7962  0.9444 C.ar	1 RES1 0.0
15 H7	13.6519  -1.054  0.3511 H	1 RES1 0.0
16 C8	11.4273  0.0632  3.8405 C.ar	1 RES1 0.0
17 C9	10.1911  -0.337  3.2932 C.ar	1 RES1 0.0
18 C10	10.0175  -0.8394  1.8781 C.3	1 RES1 0.0
19 H8	9.9632  -0.0762  1.2648 H	1 RES1 0.0
20 H9	9.1932  -1.3659  1.8168 H	1 RES1 0.0
21 H10	10.7824  -1.4011  1.6343 H	1 RES1 0.0
22 C11	9.0502  -0.2628  4.1027 C.ar	1 RES1 0.0
23 H11	8.2077  -0.5105  3.7378 H	1 RES1 0.0
24 C12	9.115  0.1615  5.4181 C.ar	1 RES1 0.0
25 H12	8.322  0.2287  5.9378 H	1 RES1 0.0
26 C13	10.3344  0.4864  5.9746 C.ar	1 RES1 0.0
27 H13	10.392  0.7331  6.8899 H	1 RES1 0.0
28 C14	11.4795  0.4503  5.1851 C.ar	1 RES1 0.0
29 H14	12.3139  0.693  5.5668 H	1 RES1 0.0
30 C15	12.6827  1.1232  1.3829 C.3	1 RES1 0.0
31 H15	12.2882  0.5135  0.696 H	1 RES1 0.0
32 C16	11.696  2.2716  1.6052 C.3	1 RES1 0.0
33 H16	12.1156  2.9586  2.1648 H	1 RES1 0.0
34 H17	10.8935  1.9306  2.0529 H	1 RES1 0.0
35 H18	11.4475  2.6617  0.7405 H	1 RES1 0.0
36 C17	14.0037  1.6618  0.8202 C.3	1 RES1 0.0
37 H19	13.8423  2.078  -0.0521 H	1 RES1 0.0
38 H20	14.6391  0.9237  0.716 H	1 RES1 0.0
39 H21	14.3752  2.3267  1.4365 H	1 RES1 0.0
@<TRIPOS>BOND
1 1 2 1
1 1 16 1
1 1 30 1
1 2 3 ar
1 2 14 ar
1 3 4 1
1 3 8 ar
1 4 5 1
1 4 6 1
1 4 7 1
1 8 9 1
1 8 10 ar
1 10 11 1
1 10 12 ar
1 12 13 1
1 12 14 ar
1 14 15 1
1 16 17 ar
1 16 28 ar
1 17 18 1
1 17 22 ar
1 18 19 1
1 18 20 1
1 18 21 1
1 22 23 1
1 22 24 ar
1 24 25 1
1 24 26 ar
1 26 27 1
1 26 28 ar
1 28 29 1
1 30 31 1
1 30 32 1
1 30 36 1
1 32 33 1
1 32 34 1
1 32 35 1
1 36 37 1
1 36 38 1
1 36 39 1
@<TRIPOS>SUBSTRUCTURE
1 RES1 39

