@<TRIPOS>MOLECULE

41	44	1
SMALL
PartialCharges
****
Generated from molSimplify

@<TRIPOS>ATOM
1 P1	1.3219  4.0326  9.0152 P.3	1 RES1 0.0
2 N1	0.8379  4.106  6.3353 N.pl3	1 RES1 0.0
3 H1	0.5453  4.8141  6.5434 H	1 RES1 0.0
4 C1	1.3161  3.3069  7.3596 C.2	1 RES1 0.0
5 C2	0.7994  3.3845  5.1661 C.ar	1 RES1 0.0
6 C3	1.2968  2.0969  5.4625 C.ar	1 RES1 0.0
7 C4	1.6181  2.0543  6.8616 C.2	1 RES1 0.0
8 C5	2.1777  0.8568  7.5775 C.3	1 RES1 0.0
9 H2	2.3041  1.074  8.5249 H	1 RES1 0.0
10 H3	3.0391  0.6122  7.1805 H	1 RES1 0.0
11 H4	1.5538  0.106  7.4948 H	1 RES1 0.0
12 C6	1.3605  1.1349  4.4371 C.ar	1 RES1 0.0
13 H5	1.7152  0.2674  4.598 H	1 RES1 0.0
14 C7	0.8927  1.4931  3.1916 C.ar	1 RES1 0.0
15 H6	0.9144  0.8506  2.4912 H	1 RES1 0.0
16 C8	0.3893  2.7607  2.9257 C.ar	1 RES1 0.0
17 H7	0.0654  2.9579  2.0548 H	1 RES1 0.0
18 C9	0.3509  3.7403  3.8966 C.ar	1 RES1 0.0
19 H8	0.032  4.6159  3.709 H	1 RES1 0.0
20 C10	2.7758  3.2793  9.8135 C.ar	1 RES1 0.0
21 C11	2.7166  2.9236  11.1657 C.ar	1 RES1 0.0
22 H9	1.9014  3.0094  11.6476 H	1 RES1 0.0
23 C12	3.8535  2.4451  11.7988 C.ar	1 RES1 0.0
24 H10	3.8187  2.2158  12.7204 H	1 RES1 0.0
25 C13	5.0275  2.2973  11.1091 C.ar	1 RES1 0.0
26 H11	5.7943  1.9418  11.5423 H	1 RES1 0.0
27 C14	5.0896  2.6705  9.7666 C.ar	1 RES1 0.0
28 H12	5.9062  2.591  9.2892 H	1 RES1 0.0
29 C15	3.9705  3.154  9.1368 C.ar	1 RES1 0.0
30 H13	4.0201  3.4063  8.2218 H	1 RES1 0.0
31 C16	-0.1466  3.357  9.8647 C.ar	1 RES1 0.0
32 C17	-0.3908  1.9691  9.9442 C.ar	1 RES1 0.0
33 H14	0.2331  1.3594  9.5688 H	1 RES1 0.0
34 C18	-1.5248  1.4931  10.5632 C.ar	1 RES1 0.0
35 H15	-1.6818  0.5578  10.6033 H	1 RES1 0.0
36 C19	-2.4308  2.3599  11.1211 C.ar	1 RES1 0.0
37 H16	-3.2085  2.0261  11.5533 H	1 RES1 0.0
38 C20	-2.2117  3.7002  11.0546 C.ar	1 RES1 0.0
39 H17	-2.8419  4.3067  11.4252 H	1 RES1 0.0
40 C21	-1.0585  4.1762  10.4379 C.ar	1 RES1 0.0
41 H18	-0.9062  5.1136  10.4189 H	1 RES1 0.0
@<TRIPOS>BOND
1 1 4 1
1 1 20 1
1 1 31 1
1 2 3 1
1 2 4 1
1 2 5 1
1 4 7 2
1 5 6 ar
1 5 18 ar
1 6 7 1
1 6 12 ar
1 7 8 1
1 8 9 1
1 8 10 1
1 8 11 1
1 12 13 1
1 12 14 ar
1 14 15 1
1 14 16 ar
1 16 17 1
1 16 18 ar
1 18 19 1
1 20 21 ar
1 20 29 ar
1 21 22 1
1 21 23 ar
1 23 24 1
1 23 25 ar
1 25 26 1
1 25 27 ar
1 27 28 1
1 27 29 ar
1 29 30 1
1 31 32 ar
1 31 40 ar
1 32 33 1
1 32 34 ar
1 34 35 1
1 34 36 ar
1 36 37 1
1 36 38 ar
1 38 39 1
1 38 40 ar
1 40 41 1
@<TRIPOS>SUBSTRUCTURE
1 RES1 41

