@<TRIPOS>MOLECULE

74	78	1
SMALL
PartialCharges
****
Generated from molSimplify

@<TRIPOS>ATOM
1 C1	-0.8582  3.1658  6.2951 C.ar	1 RES1 0.0
2 C2	-0.6994  2.5336  5.0488 C.ar	1 RES1 0.0
3 C3	-1.7996  2.1112  4.2849 C.ar	1 RES1 0.0
4 C4	-3.0525  2.3322  4.8274 C.ar	1 RES1 0.0
5 H1	-3.8112  2.0597  4.3235 H	1 RES1 0.0
6 C5	-3.2662  2.9147  6.0386 C.ar	1 RES1 0.0
7 H2	-4.1495  3.0531  6.3621 H	1 RES1 0.0
8 C6	-2.1569  3.3048  6.8002 C.ar	1 RES1 0.0
9 C7	0.9894  1.1521  3.9954 C.3	1 RES1 0.0
10 H3	0.4343  0.4237  4.3428 H	1 RES1 0.0
11 H4	1.9303  0.9729  4.202 H	1 RES1 0.0
12 H5	0.8745  1.2164  3.0238 H	1 RES1 0.0
13 C8	-3.5831  4.1345  8.5391 C.3	1 RES1 0.0
14 H6	-4.0183  4.7582  7.9205 H	1 RES1 0.0
15 H7	-3.5083  4.5501  9.4233 H	1 RES1 0.0
16 H8	-4.1177  3.3157  8.6072 H	1 RES1 0.0
17 C9	-1.71  1.4843  2.9455 C.ar	1 RES1 0.0
18 C10	-2.1453  0.1669  2.7877 C.ar	1 RES1 0.0
19 C11	-2.1555  -0.4573  1.5426 C.ar	1 RES1 0.0
20 H9	-2.4614  -1.3531  1.4631 H	1 RES1 0.0
21 C12	-1.7298  0.2138  0.4415 C.ar	1 RES1 0.0
22 H10	-1.7386  -0.2206  -0.4041 H	1 RES1 0.0
23 C13	-1.2779  1.5394  0.5346 C.ar	1 RES1 0.0
24 C14	-0.8309  2.2374  -0.605 C.ar	1 RES1 0.0
25 H11	-0.8323  1.8065  -1.4506 H	1 RES1 0.0
26 C15	-0.396  3.5371  -0.504 C.ar	1 RES1 0.0
27 H12	-0.1245  4.0111  -1.2815 H	1 RES1 0.0
28 C16	-0.3534  4.1629  0.7582 C.ar	1 RES1 0.0
29 H13	-0.0299  5.0533  0.8286 H	1 RES1 0.0
30 C17	-0.7729  3.5085  1.8831 C.ar	1 RES1 0.0
31 H14	-0.7368  3.9431  2.7276 H	1 RES1 0.0
32 C18	-1.2614  2.1805  1.79 C.ar	1 RES1 0.0
33 C19	-2.9109  -1.8471  3.8774 C.3	1 RES1 0.0
34 H15	-3.6659  -1.9468  3.2599 H	1 RES1 0.0
35 H16	-3.1762  -2.1584  4.7684 H	1 RES1 0.0
36 H17	-2.1535  -2.381  3.5573 H	1 RES1 0.0
37 C20	1.3013  2.3567  8.0999 C.3	1 RES1 0.0
38 H18	2.1757  2.6425  8.4926 H	1 RES1 0.0
39 C21	1.5872  1.142  7.2338 C.3	1 RES1 0.0
40 H19	2.1977  1.4036  6.4994 H	1 RES1 0.0
41 H20	0.7408  0.8272  6.8274 H	1 RES1 0.0
42 C22	2.2198  -0.0066  8.0261 C.3	1 RES1 0.0
43 H21	2.3304  -0.7938  7.4358 H	1 RES1 0.0
44 H22	3.1165  0.2658  8.345 H	1 RES1 0.0
45 C23	1.3511  -0.3819  9.2156 C.3	1 RES1 0.0
46 H23	0.509  -0.787  8.8876 H	1 RES1 0.0
47 H24	1.8227  -1.0609  9.7593 H	1 RES1 0.0
48 C24	1.0241  0.8006  10.0794 C.3	1 RES1 0.0
49 H25	1.8517  1.1242  10.5141 H	1 RES1 0.0
50 H26	0.3967  0.5183  10.7922 H	1 RES1 0.0
51 C25	0.3934  1.9475  9.2837 C.3	1 RES1 0.0
52 H27	0.2562  2.7267  9.8796 H	1 RES1 0.0
53 H28	-0.4905  1.6645  8.9398 H	1 RES1 0.0
54 C26	0.2347  5.0274  8.4041 C.3	1 RES1 0.0
55 H29	-0.4238  4.6069  9.0295 H	1 RES1 0.0
56 C27	-0.4114  6.2959  7.832 C.3	1 RES1 0.0
57 H30	0.2276  6.7489  7.227 H	1 RES1 0.0
58 H31	-1.2128  6.0509  7.3053 H	1 RES1 0.0
59 C28	-0.8094  7.2446  8.958 C.3	1 RES1 0.0
60 H32	-1.1913  8.0714  8.5709 H	1 RES1 0.0
61 H33	-1.5084  6.8178  9.5153 H	1 RES1 0.0
62 C29	0.3866  7.602  9.8342 C.3	1 RES1 0.0
63 H34	1.0189  8.1558  9.311 H	1 RES1 0.0
64 H35	0.0776  8.1401  10.605 H	1 RES1 0.0
65 C30	1.1084  6.3674  10.3428 C.3	1 RES1 0.0
66 H36	0.5243  5.8952  10.9886 H	1 RES1 0.0
67 H37	1.9272  6.6463  10.824 H	1 RES1 0.0
68 C31	1.4908  5.4061  9.2281 C.3	1 RES1 0.0
69 H38	1.8951  4.5898  9.6152 H	1 RES1 0.0
70 H39	2.1615  5.8321  8.6367 H	1 RES1 0.0
71 O1	0.5929  2.3911  4.6072 O.3	1 RES1 0.0
72 O2	-2.2756  3.8116  8.0488 O.3	1 RES1 0.0
73 O3	-2.5312  -0.4738  3.9466 O.3	1 RES1 0.0
74 P1	0.6644  3.7839  7.1273 P.3	1 RES1 0.0
@<TRIPOS>BOND
1 1 2 ar
1 1 8 ar
1 1 74 1
1 2 3 ar
1 2 71 1
1 3 4 ar
1 3 17 1
1 4 5 1
1 4 6 ar
1 6 7 1
1 6 8 ar
1 8 72 1
1 9 10 1
1 9 11 1
1 9 12 1
1 9 71 1
1 13 14 1
1 13 15 1
1 13 16 1
1 13 72 1
1 17 18 ar
1 17 32 ar
1 18 19 ar
1 18 73 1
1 19 20 1
1 19 21 ar
1 21 22 1
1 21 23 ar
1 23 24 ar
1 23 32 ar
1 24 25 1
1 24 26 ar
1 26 27 1
1 26 28 ar
1 28 29 1
1 28 30 ar
1 30 31 1
1 30 32 ar
1 33 34 1
1 33 35 1
1 33 36 1
1 33 73 1
1 37 38 1
1 37 39 1
1 37 51 1
1 37 74 1
1 39 40 1
1 39 41 1
1 39 42 1
1 42 43 1
1 42 44 1
1 42 45 1
1 45 46 1
1 45 47 1
1 45 48 1
1 48 49 1
1 48 50 1
1 48 51 1
1 51 52 1
1 51 53 1
1 54 55 1
1 54 56 1
1 54 68 1
1 54 74 1
1 56 57 1
1 56 58 1
1 56 59 1
1 59 60 1
1 59 61 1
1 59 62 1
1 62 63 1
1 62 64 1
1 62 65 1
1 65 66 1
1 65 67 1
1 65 68 1
1 68 69 1
1 68 70 1
@<TRIPOS>SUBSTRUCTURE
1 RES1 74

