@<TRIPOS>MOLECULE

58	60	1
SMALL
PartialCharges
****
Generated from molSimplify

@<TRIPOS>ATOM
1 P1	16.2126  13.5298  11.9268 P.3	1 RES1 0.0
2 O1	14.131  12.0132  13.2513 O.3	1 RES1 0.0
3 O2	10.2635  14.1393  11.3315 O.3	1 RES1 0.0
4 O3	14.6119  15.721  10.4081 O.3	1 RES1 0.0
5 C1	18.5759  14.019  10.5494 C.3	1 RES1 0.0
6 H1	18.8999  14.4138  11.3744 H	1 RES1 0.0
7 H2	18.7745  13.0707  10.5704 H	1 RES1 0.0
8 C2	19.2848  14.6652  9.36 C.3	1 RES1 0.0
9 H3	19.1524  15.6263  9.3902 H	1 RES1 0.0
10 H4	20.2379  14.4931  9.4208 H	1 RES1 0.0
11 C3	18.7615  14.1257  8.039 C.3	1 RES1 0.0
12 H5	18.9883  13.1852  7.9629 H	1 RES1 0.0
13 H6	19.1862  14.5969  7.3058 H	1 RES1 0.0
14 C4	17.2506  14.2917  7.9387 C.3	1 RES1 0.0
15 H7	16.9354  13.8919  7.1121 H	1 RES1 0.0
16 H8	17.0294  15.2358  7.9209 H	1 RES1 0.0
17 C5	16.5546  13.6286  9.1199 C.3	1 RES1 0.0
18 H9	16.7296  12.6752  9.1076 H	1 RES1 0.0
19 H10	15.5965  13.762  9.0495 H	1 RES1 0.0
20 C6	17.0595  14.2275  10.437 C.3	1 RES1 0.0
21 H11	16.887  15.1915  10.4154 H	1 RES1 0.0
22 C7	16.5088  16.13  13.0261 C.3	1 RES1 0.0
23 H12	15.5855  16.3001  12.7807 H	1 RES1 0.0
24 H13	17.0689  16.3733  12.2721 H	1 RES1 0.0
25 C8	16.878  16.9915  14.2222 C.3	1 RES1 0.0
26 H14	17.8267  16.8968  14.4033 H	1 RES1 0.0
27 H15	16.7063  17.9224  14.0094 H	1 RES1 0.0
28 C9	16.095  16.6118  15.4571 C.3	1 RES1 0.0
29 H16	16.3879  17.1536  16.2068 H	1 RES1 0.0
30 H17	15.1529  16.7852  15.3107 H	1 RES1 0.0
31 C10	16.2947  15.1526  15.7818 C.3	1 RES1 0.0
32 H18	15.7434  14.9142  16.5442 H	1 RES1 0.0
33 H19	17.2229  15.0013  16.0243 H	1 RES1 0.0
34 C11	15.9289  14.2586  14.5932 C.3	1 RES1 0.0
35 H20	16.1337  13.3361  14.8134 H	1 RES1 0.0
36 H21	14.9764  14.3221  14.4275 H	1 RES1 0.0
37 C12	16.6851  14.6528  13.3274 C.3	1 RES1 0.0
38 H22	17.6378  14.5069  13.504 H	1 RES1 0.0
39 C13	13.5419  12.9147  12.4244 C.ar	1 RES1 0.0
40 C14	12.1577  12.9772  12.2913 C.ar	1 RES1 0.0
41 H23	11.6116  12.3596  12.721 H	1 RES1 0.0
42 C15	11.6121  13.9711  11.5117 C.ar	1 RES1 0.0
43 C16	12.4121  14.8891  10.8712 C.ar	1 RES1 0.0
44 H24	12.0294  15.5635  10.3573 H	1 RES1 0.0
45 C17	13.7887  14.8024  10.9945 C.ar	1 RES1 0.0
46 C18	14.4068  13.7926  11.7547 C.ar	1 RES1 0.0
47 C19	13.3682  10.8854  13.6671 C.3	1 RES1 0.0
48 H25	13.8986  10.3353  14.2467 H	1 RES1 0.0
49 H26	13.1045  10.3753  12.897 H	1 RES1 0.0
50 H27	12.5848  11.1832  14.1353 H	1 RES1 0.0
51 C20	9.3785  13.2718  12.0041 C.3	1 RES1 0.0
52 H28	8.4733  13.5126  11.7958 H	1 RES1 0.0
53 H29	9.5186  13.343  12.9519 H	1 RES1 0.0
54 H30	9.5418  12.3674  11.7248 H	1 RES1 0.0
55 C21	14.1212  16.4801  9.3094 C.3	1 RES1 0.0
56 H31	14.8083  17.0753  8.9995 H	1 RES1 0.0
57 H32	13.3584  16.9917  9.5888 H	1 RES1 0.0
58 H33	13.8661  15.8879  8.599 H	1 RES1 0.0
@<TRIPOS>BOND
1 1 20 1
1 1 37 1
1 1 46 1
1 2 39 1
1 2 47 1
1 3 42 1
1 3 51 1
1 4 45 1
1 4 55 1
1 5 6 1
1 5 7 1
1 5 8 1
1 5 20 1
1 8 9 1
1 8 10 1
1 8 11 1
1 11 12 1
1 11 13 1
1 11 14 1
1 14 15 1
1 14 16 1
1 14 17 1
1 17 18 1
1 17 19 1
1 17 20 1
1 20 21 1
1 22 23 1
1 22 24 1
1 22 25 1
1 22 37 1
1 25 26 1
1 25 27 1
1 25 28 1
1 28 29 1
1 28 30 1
1 28 31 1
1 31 32 1
1 31 33 1
1 31 34 1
1 34 35 1
1 34 36 1
1 34 37 1
1 37 38 1
1 39 40 ar
1 39 46 ar
1 40 41 1
1 40 42 ar
1 42 43 ar
1 43 44 1
1 43 45 ar
1 45 46 ar
1 47 48 1
1 47 49 1
1 47 50 1
1 51 52 1
1 51 53 1
1 51 54 1
1 55 56 1
1 55 57 1
1 55 58 1
@<TRIPOS>SUBSTRUCTURE
1 RES1 58

