@<TRIPOS>MOLECULE

65	68	1
SMALL
PartialCharges
****
Generated from molSimplify

@<TRIPOS>ATOM
1 P1	0.4038  2.229  3.3524 P.3	1 RES1 0.0
2 C1	1.4441  3.4964  4.1839 C.ar	1 RES1 0.0
3 C2	0.7962  4.3739  5.0495 C.ar	1 RES1 0.0
4 H1	-0.1399  4.2809  5.1886 H	1 RES1 0.0
5 C3	1.4812  5.3789  5.7134 C.ar	1 RES1 0.0
6 H2	1.0195  5.9645  6.3019 H	1 RES1 0.0
7 C4	2.8468  5.5212  5.5118 C.ar	1 RES1 0.0
8 H3	3.3291  6.2058  5.9595 H	1 RES1 0.0
9 C5	3.4954  4.6611  4.6564 C.ar	1 RES1 0.0
10 H4	4.43  4.7741  4.5245 H	1 RES1 0.0
11 C6	2.8478  3.6316  3.9746 C.ar	1 RES1 0.0
12 C7	3.6644  2.7513  3.0465 C.3	1 RES1 0.0
13 H5	3.04  2.0792  2.6477 H	1 RES1 0.0
14 C8	4.7756  1.9719  3.7625 C.3	1 RES1 0.0
15 H6	4.3924  1.4423  4.5052 H	1 RES1 0.0
16 H7	5.4413  2.6026  4.139 H	1 RES1 0.0
17 C9	5.4612  1.0343  2.75 C.3	1 RES1 0.0
18 H8	6.1704  0.518  3.208 H	1 RES1 0.0
19 H9	4.7959  0.3903  2.3971 H	1 RES1 0.0
20 C10	6.0659  1.822  1.5981 C.3	1 RES1 0.0
21 H10	6.7809  2.4146  1.9435 H	1 RES1 0.0
22 H11	6.4753  1.1957  0.9488 H	1 RES1 0.0
23 C11	5.013  2.6523  0.9043 C.3	1 RES1 0.0
24 H12	4.3628  2.0509  0.4596 H	1 RES1 0.0
25 H13	5.4407  3.2076  0.2061 H	1 RES1 0.0
26 C12	4.2712  3.5564  1.8842 C.3	1 RES1 0.0
27 H14	3.5509  4.0361  1.4054 H	1 RES1 0.0
28 H15	4.8996  4.2312  2.2444 H	1 RES1 0.0
29 C13	0.8213  2.4014  1.5676 C.ar	1 RES1 0.0
30 C14	1.2884  1.3096  0.8457 C.ar	1 RES1 0.0
31 H16	1.3452  0.4648  1.2764 H	1 RES1 0.0
32 C15	1.6713  1.4141  -0.4729 C.ar	1 RES1 0.0
33 H17	1.9835  0.6511  -0.9443 H	1 RES1 0.0
34 C16	1.5973  2.6415  -1.1015 C.ar	1 RES1 0.0
35 H18	1.8997  2.7392  -1.9954 H	1 RES1 0.0
36 C17	1.0732  3.7357  -0.4133 C.ar	1 RES1 0.0
37 H19	0.9974  4.5701  -0.8628 H	1 RES1 0.0
38 C18	0.6586  3.6426  0.9089 C.ar	1 RES1 0.0
39 C19	0.047  4.8784  1.5567 C.3	1 RES1 0.0
40 H20	-0.3289  4.602  2.4416 H	1 RES1 0.0
41 C20	1.1044  5.9725  1.819 C.3	1 RES1 0.0
42 H21	1.8169  5.6079  2.4016 H	1 RES1 0.0
43 H22	1.5196  6.2395  0.9606 H	1 RES1 0.0
44 C21	0.4837  7.202  2.4846 C.3	1 RES1 0.0
45 H23	0.1301  6.9527  3.3741 H	1 RES1 0.0
46 H24	1.1784  7.8947  2.6136 H	1 RES1 0.0
47 C22	-0.6371  7.7619  1.6322 C.3	1 RES1 0.0
48 H25	-0.2713  8.0668  0.7635 H	1 RES1 0.0
49 H26	-1.0393  8.5441  2.0873 H	1 RES1 0.0
50 C23	-1.7121  6.704  1.3891 C.3	1 RES1 0.0
51 H27	-2.4213  7.0787  0.8079 H	1 RES1 0.0
52 H28	-2.1255  6.4471  2.2519 H	1 RES1 0.0
53 C24	-1.1028  5.4692  0.7254 C.3	1 RES1 0.0
54 H29	-0.7636  5.7162  -0.172 H	1 RES1 0.0
55 H30	-1.8047  4.783  0.6063 H	1 RES1 0.0
56 C25	1.0972  0.5865  3.8989 C.3	1 RES1 0.0
57 H31	1.9173  0.4027  3.3578 H	1 RES1 0.0
58 C26	0.0954  -0.5395  3.6365 C.3	1 RES1 0.0
59 H32	0.5058  -1.4015  3.8603 H	1 RES1 0.0
60 H33	-0.1607  -0.5358  2.6907 H	1 RES1 0.0
61 H34	-0.7014  -0.4027  4.1894 H	1 RES1 0.0
62 C27	1.4999  0.5922  5.3858 C.3	1 RES1 0.0
63 H35	0.7147  0.7983  5.9358 H	1 RES1 0.0
64 H36	2.1899  1.272  5.5355 H	1 RES1 0.0
65 H37	1.8493  -0.2892  5.6333 H	1 RES1 0.0
@<TRIPOS>BOND
1 1 2 1
1 1 29 1
1 1 56 1
1 2 3 ar
1 2 11 ar
1 3 4 1
1 3 5 ar
1 5 6 1
1 5 7 ar
1 7 8 1
1 7 9 ar
1 9 10 1
1 9 11 ar
1 11 12 1
1 12 13 1
1 12 14 1
1 12 26 1
1 14 15 1
1 14 16 1
1 14 17 1
1 17 18 1
1 17 19 1
1 17 20 1
1 20 21 1
1 20 22 1
1 20 23 1
1 23 24 1
1 23 25 1
1 23 26 1
1 26 27 1
1 26 28 1
1 29 30 ar
1 29 38 ar
1 30 31 1
1 30 32 ar
1 32 33 1
1 32 34 ar
1 34 35 1
1 34 36 ar
1 36 37 1
1 36 38 ar
1 38 39 1
1 39 40 1
1 39 41 1
1 39 53 1
1 41 42 1
1 41 43 1
1 41 44 1
1 44 45 1
1 44 46 1
1 44 47 1
1 47 48 1
1 47 49 1
1 47 50 1
1 50 51 1
1 50 52 1
1 50 53 1
1 53 54 1
1 53 55 1
1 56 57 1
1 56 58 1
1 56 62 1
1 58 59 1
1 58 60 1
1 58 61 1
1 62 63 1
1 62 64 1
1 62 65 1
@<TRIPOS>SUBSTRUCTURE
1 RES1 65

