@<TRIPOS>MOLECULE

33	34	1
SMALL
PartialCharges
****
Generated from molSimplify

@<TRIPOS>ATOM
1 P1	9.3136  13.1235  7.137 P.3	1 RES1 0.0
2 O1	10.1842  14.3677  6.8046 O.3	1 RES1 0.0
3 N1	6.7788  13.1719  6.0002 N.2	1 RES1 0.0
4 C1	7.6262  13.7213  6.8563 C.2	1 RES1 0.0
5 N2	7.0629  14.7656  7.5447 N.pl3	1 RES1 0.0
6 C2	8.0543  16.8819  8.223 C.ar	1 RES1 0.0
7 H1	8.0178  17.1775  7.3215 H	1 RES1 0.0
8 C3	8.8032  10.6135  6.0242 C.3	1 RES1 0.0
9 H2	9.0095  9.9679  5.3156 H	1 RES1 0.0
10 H3	7.8552  10.8558  5.9775 H	1 RES1 0.0
11 H4	8.9955  10.2117  6.8966 H	1 RES1 0.0
12 C4	9.6542  11.8565  5.8388 C.3	1 RES1 0.0
13 C5	8.6037  17.3004  10.5202 C.ar	1 RES1 0.0
14 H5	8.9494  17.8766  11.1922 H	1 RES1 0.0
15 C6	7.665  15.1788  9.8545 C.ar	1 RES1 0.0
16 H6	7.3644  14.3063  10.0764 H	1 RES1 0.0
17 C7	8.1581  16.0385  10.8493 C.ar	1 RES1 0.0
18 H7	8.186  15.7487  11.7546 H	1 RES1 0.0
19 C8	9.4324  12.4405  4.4179 C.3	1 RES1 0.0
20 H8	9.6203  11.7511  3.7471 H	1 RES1 0.0
21 H9	10.0334  13.2032  4.2805 H	1 RES1 0.0
22 H10	8.5022  12.7381  4.3284 H	1 RES1 0.0
23 C9	7.6253  15.6229  8.5647 C.ar	1 RES1 0.0
24 C10	8.5437  17.7189  9.2228 C.ar	1 RES1 0.0
25 H11	8.8407  18.5925  8.9972 H	1 RES1 0.0
26 C11	11.1299  11.4871  5.9989 C.3	1 RES1 0.0
27 H12	11.3738  10.8165  5.3269 H	1 RES1 0.0
28 H13	11.2806  11.1212  6.8954 H	1 RES1 0.0
29 H14	11.682  12.2886  5.8766 H	1 RES1 0.0
30 C12	5.6011  13.8952  6.1591 C.2	1 RES1 0.0
31 H15	4.7956  13.7287  5.6825 H	1 RES1 0.0
32 C13	5.7628  14.8684  7.0895 C.2	1 RES1 0.0
33 H16	5.1096  15.4974  7.3732 H	1 RES1 0.0
@<TRIPOS>BOND
1 1 2 1
1 1 4 1
1 1 12 1
1 3 4 2
1 3 30 1
1 4 5 1
1 5 23 1
1 5 32 1
1 6 7 1
1 6 23 ar
1 6 24 ar
1 8 9 1
1 8 10 1
1 8 11 1
1 8 12 1
1 12 19 1
1 12 26 1
1 13 14 1
1 13 17 ar
1 13 24 ar
1 15 16 1
1 15 17 ar
1 15 23 ar
1 17 18 1
1 19 20 1
1 19 21 1
1 19 22 1
1 24 25 1
1 26 27 1
1 26 28 1
1 26 29 1
1 30 31 1
1 30 32 2
1 32 33 1
@<TRIPOS>SUBSTRUCTURE
1 RES1 33

