@<TRIPOS>MOLECULE

52	54	1
SMALL
PartialCharges
****
Generated from molSimplify

@<TRIPOS>ATOM
1 P1	3.6295  16.8009  11.4239 P.3	1 RES1 0.0
2 C1	4.7372  15.3972  11.8741 C.ar	1 RES1 0.0
3 C2	4.598  14.6832  13.0698 C.ar	1 RES1 0.0
4 C3	3.5517  14.9806  14.1396 C.3	1 RES1 0.0
5 H1	3.108  15.8389  13.9252 H	1 RES1 0.0
6 H2	2.8603  14.2727  14.1178 H	1 RES1 0.0
7 C4	4.1272  15.0613  15.5352 C.3	1 RES1 0.0
8 H3	4.7976  15.7744  15.5718 H	1 RES1 0.0
9 H4	4.5474  14.2064  15.7644 H	1 RES1 0.0
10 H5	3.41  15.2548  16.1745 H	1 RES1 0.0
11 C5	5.4828  13.6337  13.3163 C.ar	1 RES1 0.0
12 H6	5.3805  13.1229  14.1101 H	1 RES1 0.0
13 C6	6.502  13.3125  12.4443 C.ar	1 RES1 0.0
14 H7	7.0738  12.5757  12.6292 H	1 RES1 0.0
15 C7	6.6905  14.0665  11.2983 C.ar	1 RES1 0.0
16 H8	7.4102  13.8747  10.7073 H	1 RES1 0.0
17 C8	5.8131  15.1054  11.0254 C.ar	1 RES1 0.0
18 H9	5.9437  15.6307  10.2451 H	1 RES1 0.0
19 C9	3.4395  16.7705  9.5982 C.ar	1 RES1 0.0
20 C10	2.9293  17.8965  8.9001 C.ar	1 RES1 0.0
21 C11	2.4167  19.1661  9.5468 C.3	1 RES1 0.0
22 H10	2.2971  19.0026  10.5166 H	1 RES1 0.0
23 H11	1.5269  19.3785  9.1667 H	1 RES1 0.0
24 C12	3.3262  20.379  9.365 C.3	1 RES1 0.0
25 H12	3.4087  20.5836  8.4098 H	1 RES1 0.0
26 H13	4.2122  20.18  9.7328 H	1 RES1 0.0
27 H14	2.9429  21.1492  9.833 H	1 RES1 0.0
28 C13	2.8295  17.8129  7.5074 C.ar	1 RES1 0.0
29 H15	2.4845  18.5586  7.0291 H	1 RES1 0.0
30 C14	3.2079  16.7086  6.8091 C.ar	1 RES1 0.0
31 H16	3.177  16.7086  5.8601 H	1 RES1 0.0
32 C15	3.6392  15.58  7.4928 C.ar	1 RES1 0.0
33 H17	3.8684  14.7905  7.0175 H	1 RES1 0.0
34 C16	3.7304  15.6152  8.878 C.ar	1 RES1 0.0
35 H18	3.9966  14.8328  9.3458 H	1 RES1 0.0
36 C17	4.6768  18.2731  11.8335 C.3	1 RES1 0.0
37 H19	4.1161  19.0819  11.6548 H	1 RES1 0.0
38 C18	5.0268  18.3037  13.3254 C.3	1 RES1 0.0
39 H20	4.2036  18.1937  13.8636 H	1 RES1 0.0
40 H21	5.6393  17.5562  13.5401 H	1 RES1 0.0
41 C19	5.696  19.6367  13.6726 C.3	1 RES1 0.0
42 H22	5.0589  20.3772  13.5131 H	1 RES1 0.0
43 H23	5.9413  19.6439  14.632 H	1 RES1 0.0
44 C20	6.9506  19.8482  12.8212 C.3	1 RES1 0.0
45 H24	7.3326  20.7402  13.0163 H	1 RES1 0.0
46 H25	7.6284  19.1666  13.0606 H	1 RES1 0.0
47 C21	6.6425  19.7472  11.3463 C.3	1 RES1 0.0
48 H26	7.4842  19.8189  10.8305 H	1 RES1 0.0
49 H27	6.0583  20.5025  11.0828 H	1 RES1 0.0
50 C22	5.9486  18.4311  10.9987 C.3	1 RES1 0.0
51 H28	6.5611  17.6741  11.1791 H	1 RES1 0.0
52 H29	5.7182  18.4204  10.0352 H	1 RES1 0.0
@<TRIPOS>BOND
1 1 2 1
1 1 19 1
1 1 36 1
1 2 3 ar
1 2 17 ar
1 3 4 1
1 3 11 ar
1 4 5 1
1 4 6 1
1 4 7 1
1 7 8 1
1 7 9 1
1 7 10 1
1 11 12 1
1 11 13 ar
1 13 14 1
1 13 15 ar
1 15 16 1
1 15 17 ar
1 17 18 1
1 19 20 ar
1 19 34 ar
1 20 21 1
1 20 28 ar
1 21 22 1
1 21 23 1
1 21 24 1
1 24 25 1
1 24 26 1
1 24 27 1
1 28 29 1
1 28 30 ar
1 30 31 1
1 30 32 ar
1 32 33 1
1 32 34 ar
1 34 35 1
1 36 37 1
1 36 38 1
1 36 50 1
1 38 39 1
1 38 40 1
1 38 41 1
1 41 42 1
1 41 43 1
1 41 44 1
1 44 45 1
1 44 46 1
1 44 47 1
1 47 48 1
1 47 49 1
1 47 50 1
1 50 51 1
1 50 52 1
@<TRIPOS>SUBSTRUCTURE
1 RES1 52

