@<TRIPOS>MOLECULE

36	37	1
SMALL
PartialCharges
****
Generated from molSimplify

@<TRIPOS>ATOM
1 P1	4.8187  0.9126  7.8566 P.3	1 RES1 0.0
2 C1	4.6721  2.7331  7.9635 C.ar	1 RES1 0.0
3 C2	4.7827  3.5418  6.814 C.ar	1 RES1 0.0
4 C3	5.0547  3.0061  5.4457 C.3	1 RES1 0.0
5 H1	6.0209  2.8914  5.3254 H	1 RES1 0.0
6 H2	4.7151  3.6347  4.7746 H	1 RES1 0.0
7 H3	4.6083  2.1406  5.3377 H	1 RES1 0.0
8 C4	4.5945  4.9192  6.9725 C.ar	1 RES1 0.0
9 H4	4.6793  5.4861  6.2153 H	1 RES1 0.0
10 C5	4.2894  5.4785  8.1973 C.ar	1 RES1 0.0
11 H5	4.1867  6.4199  8.2725 H	1 RES1 0.0
12 C6	4.1341  4.6813  9.3113 C.ar	1 RES1 0.0
13 H6	3.8973  5.0633  10.1478 H	1 RES1 0.0
14 C7	4.3273  3.3152  9.191 C.ar	1 RES1 0.0
15 H7	4.2256  2.7616  9.9565 H	1 RES1 0.0
16 C8	5.068  0.2891  9.5628 C.ar	1 RES1 0.0
17 C9	6.1452  0.6674  10.3816 C.ar	1 RES1 0.0
18 C10	7.2263  1.6211  9.9606 C.3	1 RES1 0.0
19 H8	7.6979  1.9501  10.7547 H	1 RES1 0.0
20 H9	6.8265  2.3776  9.4822 H	1 RES1 0.0
21 H10	7.8597  1.1594  9.3728 H	1 RES1 0.0
22 C11	6.2441  0.0673  11.65 C.ar	1 RES1 0.0
23 H11	6.9604  0.3091  12.2241 H	1 RES1 0.0
24 C12	5.3217  -0.8627  12.0738 C.ar	1 RES1 0.0
25 H12	5.4089  -1.2457  12.939 H	1 RES1 0.0
26 C13	4.2833  -1.2457  11.2714 C.ar	1 RES1 0.0
27 H13	3.6595  -1.8979  11.5667 H	1 RES1 0.0
28 C14	4.158  -0.6683  10.0234 C.ar	1 RES1 0.0
29 H14	3.4346  -0.9281  9.4644 H	1 RES1 0.0
30 C15	6.4003  0.5508  6.9999 C.3	1 RES1 0.0
31 H15	6.2532  0.5991  6.0212 H	1 RES1 0.0
32 H16	7.0615  1.2476  7.2391 H	1 RES1 0.0
33 C16	6.9797  -0.8172  7.3443 C.3	1 RES1 0.0
34 H17	7.3051  -0.8105  8.2684 H	1 RES1 0.0
35 H18	7.7228  -1.0201  6.7374 H	1 RES1 0.0
36 H19	6.2836  -1.5007  7.2486 H	1 RES1 0.0
@<TRIPOS>BOND
1 1 2 1
1 1 16 1
1 1 30 1
1 2 3 ar
1 2 14 ar
1 3 4 1
1 3 8 ar
1 4 5 1
1 4 6 1
1 4 7 1
1 8 9 1
1 8 10 ar
1 10 11 1
1 10 12 ar
1 12 13 1
1 12 14 ar
1 14 15 1
1 16 17 ar
1 16 28 ar
1 17 18 1
1 17 22 ar
1 18 19 1
1 18 20 1
1 18 21 1
1 22 23 1
1 22 24 ar
1 24 25 1
1 24 26 ar
1 26 27 1
1 26 28 ar
1 28 29 1
1 30 31 1
1 30 32 1
1 30 33 1
1 33 34 1
1 33 35 1
1 33 36 1
@<TRIPOS>SUBSTRUCTURE
1 RES1 36

