@<TRIPOS>MOLECULE

75	76	1
SMALL
PartialCharges
****
Generated from molSimplify

@<TRIPOS>ATOM
1 P1	9.25  3.3854  18.1106 P.3	1 RES1 0.0
2 C1	9.8512  4.9917  17.4762 C.3	1 RES1 0.0
3 H1	10.3091  4.8548  16.6223 H	1 RES1 0.0
4 H2	10.4736  5.385  18.1228 H	1 RES1 0.0
5 H3	9.0919  5.5961  17.3447 H	1 RES1 0.0
6 C2	10.815  2.4844  18.3087 C.3	1 RES1 0.0
7 C3	11.2884  2.2259  19.6021 C.2	1 RES1 0.0
8 H4	10.749  2.4464  20.3537 H	1 RES1 0.0
9 C4	12.5405  1.6497  19.7989 C.2	1 RES1 0.0
10 C5	13.3053  1.3355  18.6657 C.2	1 RES1 0.0
11 H5	14.1615  0.9452  18.7894 H	1 RES1 0.0
12 C6	12.8572  1.5728  17.362 C.2	1 RES1 0.0
13 C7	11.5939  2.1505  17.2039 C.2	1 RES1 0.0
14 H6	11.2622  2.3177  16.3302 H	1 RES1 0.0
15 C8	13.0885  1.3529  21.2019 C.3	1 RES1 0.0
16 C9	12.1223  1.7855  22.3115 C.3	1 RES1 0.0
17 H7	11.9464  2.746  22.2339 H	1 RES1 0.0
18 H8	12.5225  1.5949  23.1847 H	1 RES1 0.0
19 H9	11.2811  1.2912  22.2233 H	1 RES1 0.0
20 C10	14.4113  2.1388  21.4006 C.3	1 RES1 0.0
21 H10	15.0564  1.8709  20.7148 H	1 RES1 0.0
22 H11	14.7781  1.9419  22.287 H	1 RES1 0.0
23 H12	14.2338  3.1002  21.3257 H	1 RES1 0.0
24 C11	13.3735  -0.1371  21.3408 C.3	1 RES1 0.0
25 H13	12.5418  -0.6415  21.2274 H	1 RES1 0.0
26 H14	13.7463  -0.3171  22.2286 H	1 RES1 0.0
27 H15	14.0177  -0.4119  20.6564 H	1 RES1 0.0
28 C12	13.6688  1.1854  16.1223 C.3	1 RES1 0.0
29 C13	15.1301  0.8896  16.4563 C.3	1 RES1 0.0
30 H16	15.6273  0.7228  15.6291 H	1 RES1 0.0
31 H17	15.181  0.0988  17.0313 H	1 RES1 0.0
32 H18	15.5198  1.6588  16.9224 H	1 RES1 0.0
33 C14	13.0362  -0.0663  15.4997 C.3	1 RES1 0.0
34 H19	12.096  0.1133  15.2891 H	1 RES1 0.0
35 H20	13.0933  -0.8114  16.1337 H	1 RES1 0.0
36 H21	13.5168  -0.3007  14.6783 H	1 RES1 0.0
37 C15	13.6542  2.326  15.0865 C.3	1 RES1 0.0
38 H22	14.1995  2.0716  14.3145 H	1 RES1 0.0
39 H23	14.0205  3.1394  15.491 H	1 RES1 0.0
40 H24	12.7325  2.4917  14.7952 H	1 RES1 0.0
41 C16	8.4449  2.6445  16.6537 C.3	1 RES1 0.0
42 C17	8.3624  1.2544  16.531 C.2	1 RES1 0.0
43 H25	8.7776  0.7012  17.1827 H	1 RES1 0.0
44 C18	7.6794  0.6697  15.466 C.2	1 RES1 0.0
45 C19	7.0756  1.5191  14.5312 C.2	1 RES1 0.0
46 H26	6.5954  1.1316  13.8099 H	1 RES1 0.0
47 C20	7.1481  2.911  14.6151 C.2	1 RES1 0.0
48 C21	7.8396  3.4644  15.6957 C.2	1 RES1 0.0
49 H27	7.8988  4.4089  15.7805 H	1 RES1 0.0
50 C22	7.5391  -0.8511  15.3269 C.3	1 RES1 0.0
51 C23	8.464  -1.606  16.2933 C.3	1 RES1 0.0
52 H28	8.3373  -2.571  16.1788 H	1 RES1 0.0
53 H29	8.2475  -1.356  17.2146 H	1 RES1 0.0
54 H30	9.3975  -1.3725  16.1018 H	1 RES1 0.0
55 C24	7.9522  -1.3049  13.9105 C.3	1 RES1 0.0
56 H31	7.3775  -0.868  13.2469 H	1 RES1 0.0
57 H32	7.856  -2.2776  13.8365 H	1 RES1 0.0
58 H33	8.8859  -1.0574  13.7488 H	1 RES1 0.0
59 C25	6.091  -1.2335  15.5677 C.3	1 RES1 0.0
60 H34	5.5152  -0.7424  14.9439 H	1 RES1 0.0
61 H35	5.842  -1.009  16.4895 H	1 RES1 0.0
62 H36	5.9806  -2.1962  15.4246 H	1 RES1 0.0
63 C26	6.4721  3.7757  13.5454 C.3	1 RES1 0.0
64 C27	7.0376  3.4283  12.1655 C.3	1 RES1 0.0
65 H37	6.5833  3.9631  11.4808 H	1 RES1 0.0
66 H38	6.895  2.4763  11.9854 H	1 RES1 0.0
67 H39	7.9984  3.6233  12.1474 H	1 RES1 0.0
68 C28	4.9592  3.4815  13.5563 C.3	1 RES1 0.0
69 H40	4.5115  4.0444  12.891 H	1 RES1 0.0
70 H41	4.5953  3.6748  14.4446 H	1 RES1 0.0
71 H42	4.8077  2.5381  13.3398 H	1 RES1 0.0
72 C29	6.6837  5.267  13.7889 C.3	1 RES1 0.0
73 H43	7.6427  5.4715  13.7541 H	1 RES1 0.0
74 H44	6.3316  5.5075  14.6704 H	1 RES1 0.0
75 H45	6.2143  5.7804  13.0982 H	1 RES1 0.0
@<TRIPOS>BOND
1 1 2 1
1 1 6 1
1 1 41 1
1 2 3 1
1 2 4 1
1 2 5 1
1 6 7 1
1 6 13 1
1 7 8 1
1 7 9 un
1 9 10 un
1 9 15 1
1 10 11 1
1 10 12 un
1 12 13 un
1 12 28 1
1 13 14 1
1 15 16 1
1 15 20 1
1 15 24 1
1 16 17 1
1 16 18 1
1 16 19 1
1 20 21 1
1 20 22 1
1 20 23 1
1 24 25 1
1 24 26 1
1 24 27 1
1 28 29 1
1 28 33 1
1 28 37 1
1 29 30 1
1 29 31 1
1 29 32 1
1 33 34 1
1 33 35 1
1 33 36 1
1 37 38 1
1 37 39 1
1 37 40 1
1 41 42 1
1 41 48 1
1 42 43 1
1 42 44 un
1 44 45 un
1 44 50 1
1 45 46 1
1 45 47 un
1 47 48 un
1 47 63 1
1 48 49 1
1 50 51 1
1 50 55 1
1 50 59 1
1 51 52 1
1 51 53 1
1 51 54 1
1 55 56 1
1 55 57 1
1 55 58 1
1 59 60 1
1 59 61 1
1 59 62 1
1 63 64 1
1 63 68 1
1 63 72 1
1 64 65 1
1 64 66 1
1 64 67 1
1 68 69 1
1 68 70 1
1 68 71 1
1 72 73 1
1 72 74 1
1 72 75 1
@<TRIPOS>SUBSTRUCTURE
1 RES1 75

