@<TRIPOS>MOLECULE

63	66	1
SMALL
PartialCharges
****
Generated from molSimplify

@<TRIPOS>ATOM
1 P1	6.7957  4.4569  2.1425 P.3	1 RES1 0.0
2 C1	7.2435  5.6874  3.4215 C.2	1 RES1 0.0
3 C2	6.925  7.111  2.949 C.3	1 RES1 0.0
4 C3	7.7417  5.4859  4.6472 C.2	1 RES1 0.0
5 C4	8.2119  4.2312  5.3097 C.ar	1 RES1 0.0
6 C5	7.3641  3.3794  5.9796 C.ar	1 RES1 0.0
7 C6	7.8447  2.2927  6.7146 C.ar	1 RES1 0.0
8 C7	9.2147  2.0708  6.787 C.ar	1 RES1 0.0
9 C8	10.0795  2.9185  6.1316 C.ar	1 RES1 0.0
10 C9	9.577  3.9859  5.4111 C.ar	1 RES1 0.0
11 C10	7.8868  6.6816  5.5976 C.ar	1 RES1 0.0
12 C11	8.9378  7.5516  5.4962 C.ar	1 RES1 0.0
13 C12	9.0778  8.6028  6.4068 C.ar	1 RES1 0.0
14 C13	8.1453  8.7666  7.4043 C.ar	1 RES1 0.0
15 C14	7.0857  7.8986  7.5003 C.ar	1 RES1 0.0
16 C15	6.9521  6.8484  6.6078 C.ar	1 RES1 0.0
17 C16	7.4942  2.7974  2.5182 C.3	1 RES1 0.0
18 C17	8.9959  2.7475  2.2285 C.3	1 RES1 0.0
19 C18	9.5769  1.3758  2.6015 C.3	1 RES1 0.0
20 C19	8.8603  0.2636  1.8284 C.3	1 RES1 0.0
21 C20	7.356  0.3185  2.0384 C.3	1 RES1 0.0
22 C21	6.7768  1.6994  1.709 C.3	1 RES1 0.0
23 C22	4.9524  4.2933  2.3462 C.3	1 RES1 0.0
24 C23	4.5395  3.7753  3.7384 C.3	1 RES1 0.0
25 C24	3.0276  3.5555  3.8053 C.3	1 RES1 0.0
26 C25	2.2442  4.8265  3.4342 C.3	1 RES1 0.0
27 C26	2.6731  5.2986  2.0493 C.3	1 RES1 0.0
28 C27	4.1883  5.5714  2.0022 C.3	1 RES1 0.0
29 H1	7.7542  7.5577  2.6757 H	1 RES1 0.0
30 H2	6.5096  7.6137  3.6804 H	1 RES1 0.0
31 H3	6.3096  7.0723  2.1869 H	1 RES1 0.0
32 H4	6.4282  3.5331  5.9415 H	1 RES1 0.0
33 H5	7.2401  1.7116  7.1617 H	1 RES1 0.0
34 H6	9.5541  1.3361  7.2848 H	1 RES1 0.0
35 H7	11.0182  2.7709  6.1733 H	1 RES1 0.0
36 H8	10.1829  4.57  4.9694 H	1 RES1 0.0
37 H9	9.5758  7.4417  4.801 H	1 RES1 0.0
38 H10	9.812  9.2001  6.338 H	1 RES1 0.0
39 H11	8.2342  9.4789  8.0271 H	1 RES1 0.0
40 H12	6.4379  8.0207  8.1846 H	1 RES1 0.0
41 H13	6.2232  6.245  6.6874 H	1 RES1 0.0
42 H14	7.3561  2.6112  3.4903 H	1 RES1 0.0
43 H15	9.4553  3.4537  2.7499 H	1 RES1 0.0
44 H16	9.1528  2.9225  1.2672 H	1 RES1 0.0
45 H17	10.5432  1.3565  2.3897 H	1 RES1 0.0
46 H18	9.4718  1.2252  3.5736 H	1 RES1 0.0
47 H19	9.0593  0.3541  0.8635 H	1 RES1 0.0
48 H20	9.1999  -0.6156  2.129 H	1 RES1 0.0
49 H21	7.1508  0.0967  2.9816 H	1 RES1 0.0
50 H22	6.9223  -0.3612  1.4646 H	1 RES1 0.0
51 H23	5.8105  1.7116  1.9208 H	1 RES1 0.0
52 H24	6.8816  1.8795  0.7422 H	1 RES1 0.0
53 H25	4.6559  3.6013  1.6872 H	1 RES1 0.0
54 H26	5.0075  2.9225  3.9266 H	1 RES1 0.0
55 H27	4.8085  4.4316  4.4299 H	1 RES1 0.0
56 H28	2.779  3.2757  4.7232 H	1 RES1 0.0
57 H29	2.7766  2.8249  3.1862 H	1 RES1 0.0
58 H30	1.2729  4.6342  3.436 H	1 RES1 0.0
59 H31	2.4218  5.5368  4.1004 H	1 RES1 0.0
60 H32	2.1823  6.127  1.8176 H	1 RES1 0.0
61 H33	2.4417  4.6077  1.3795 H	1 RES1 0.0
62 H34	4.4436  5.8807  1.0971 H	1 RES1 0.0
63 H35	4.4195  6.2827  2.6503 H	1 RES1 0.0
@<TRIPOS>BOND
1 1 2 1
1 1 17 1
1 1 23 1
1 2 3 1
1 2 4 2
1 3 29 1
1 3 30 1
1 3 31 1
1 4 5 1
1 4 11 1
1 5 6 ar
1 5 10 ar
1 6 7 ar
1 6 32 1
1 7 8 ar
1 7 33 1
1 8 9 ar
1 8 34 1
1 9 10 ar
1 9 35 1
1 10 36 1
1 11 12 ar
1 11 16 ar
1 12 13 ar
1 12 37 1
1 13 14 ar
1 13 38 1
1 14 15 ar
1 14 39 1
1 15 16 ar
1 15 40 1
1 16 41 1
1 17 18 1
1 17 22 1
1 17 42 1
1 18 19 1
1 18 43 1
1 18 44 1
1 19 20 1
1 19 45 1
1 19 46 1
1 20 21 1
1 20 47 1
1 20 48 1
1 21 22 1
1 21 49 1
1 21 50 1
1 22 51 1
1 22 52 1
1 23 24 1
1 23 28 1
1 23 53 1
1 24 25 1
1 24 54 1
1 24 55 1
1 25 26 1
1 25 56 1
1 25 57 1
1 26 27 1
1 26 58 1
1 26 59 1
1 27 28 1
1 27 60 1
1 27 61 1
1 28 62 1
1 28 63 1
@<TRIPOS>SUBSTRUCTURE
1 RES1 63

