@<TRIPOS>MOLECULE

88	93	1
SMALL
PartialCharges
****
Generated from molSimplify

@<TRIPOS>ATOM
1 P1	4.8113  2.1823  8.2679 P.3	1 RES1 0.0
2 N1	6.4316  0.7517  9.9745 N.3	1 RES1 0.0
3 N2	5.2963  2.7448  10.912 N.3	1 RES1 0.0
4 N3	3.9988  0.6883  10.429 N.3	1 RES1 0.0
5 C1	6.3063  1.1355  8.5515 C.3	1 RES1 0.0
6 H1	6.2461  0.3195  7.9944 H	1 RES1 0.0
7 H2	7.1149  1.6355  8.2736 H	1 RES1 0.0
8 C2	5.0173  3.4017  9.6311 C.3	1 RES1 0.0
9 H3	5.7619  4.0161  9.41 H	1 RES1 0.0
10 H4	4.1913  3.9415  9.7151 H	1 RES1 0.0
11 C3	3.5691  1.0839  9.0678 C.3	1 RES1 0.0
12 H5	2.6998  1.5552  9.1222 H	1 RES1 0.0
13 H6	3.4427  0.2721  8.5144 H	1 RES1 0.0
14 C4	6.548  1.9548  10.8157 C.3	1 RES1 0.0
15 H7	7.2167  2.5459  10.3648 H	1 RES1 0.0
16 C5	5.2703  -0.063  10.4315 C.3	1 RES1 0.0
17 H8	5.4529  -0.2893  11.3876 H	1 RES1 0.0
18 C6	4.1945  1.8392  11.3369 C.3	1 RES1 0.0
19 H9	4.4833  1.4505  12.2127 H	1 RES1 0.0
20 C7	7.1154  1.6479  12.1967 C.ar	1 RES1 0.0
21 C8	8.0017  0.5869  12.3807 C.ar	1 RES1 0.0
22 H10	8.2269  0.0241  11.6495 H	1 RES1 0.0
23 C9	8.5553  0.3485  13.6394 C.ar	1 RES1 0.0
24 H11	9.1512  -0.3847  13.7469 H	1 RES1 0.0
25 C10	8.2699  1.1402  14.7351 C.ar	1 RES1 0.0
26 C11	7.4195  2.2235  14.5152 C.ar	1 RES1 0.0
27 H12	7.222  2.8058  15.2403 H	1 RES1 0.0
28 C12	6.8539  2.4816  13.2787 C.ar	1 RES1 0.0
29 H13	6.2819  3.2324  13.1688 H	1 RES1 0.0
30 C13	8.8063  0.8735  16.1519 C.3	1 RES1 0.0
31 C14	9.7589  -0.3544  16.1704 C.3	1 RES1 0.0
32 H14	9.2609  -1.1587  15.9159 H	1 RES1 0.0
33 H15	10.1264  -0.4699  17.0721 H	1 RES1 0.0
34 H16	10.4917  -0.2085  15.5355 H	1 RES1 0.0
35 C15	9.5834  2.084  16.6534 C.3	1 RES1 0.0
36 H17	10.3813  2.212  16.0987 H	1 RES1 0.0
37 H18	9.8518  1.9363  17.5835 H	1 RES1 0.0
38 H19	9.0155  2.8804  16.6003 H	1 RES1 0.0
39 C16	7.636  0.5631  17.0672 C.3	1 RES1 0.0
40 H20	6.9316  1.2315  16.935 H	1 RES1 0.0
41 H21	7.9349  0.5856  17.9998 H	1 RES1 0.0
42 H22	7.2843  -0.3275  16.8584 H	1 RES1 0.0
43 C17	5.1731  -1.3876  9.699 C.ar	1 RES1 0.0
44 C18	3.945  -2.0411  9.5953 C.ar	1 RES1 0.0
45 H23	3.1608  -1.6228  9.93 H	1 RES1 0.0
46 C19	3.858  -3.2845  9.0172 C.ar	1 RES1 0.0
47 H24	3.0134  -3.7192  8.9888 H	1 RES1 0.0
48 C20	4.9704  -3.9273  8.4687 C.ar	1 RES1 0.0
49 C21	6.1728  -3.2764  8.5774 C.ar	1 RES1 0.0
50 H25	6.9519  -3.6837  8.2192 H	1 RES1 0.0
51 C22	6.2839  -2.0335  9.1975 C.ar	1 RES1 0.0
52 H26	7.1378  -1.6245  9.2753 H	1 RES1 0.0
53 C23	4.8094  -5.3251  7.8239 C.3	1 RES1 0.0
54 C24	3.6652  -5.2854  6.7839 C.3	1 RES1 0.0
55 H27	3.8651  -4.6113  6.1033 H	1 RES1 0.0
56 H28	2.8233  -5.0583  7.2335 H	1 RES1 0.0
57 H29	3.5803  -6.1646  6.3577 H	1 RES1 0.0
58 C25	4.4467  -6.3326  8.9221 C.3	1 RES1 0.0
59 H30	4.3586  -7.2266  8.5293 H	1 RES1 0.0
60 H31	3.5969  -6.0731  9.3359 H	1 RES1 0.0
61 H32	5.1506  -6.342  9.6027 H	1 RES1 0.0
62 C26	6.0798  -5.7766  7.1075 C.3	1 RES1 0.0
63 H33	6.3538  -5.0898  6.4652 H	1 RES1 0.0
64 H34	5.9062  -6.6176  6.6344 H	1 RES1 0.0
65 H35	6.7938  -5.9128  7.7647 H	1 RES1 0.0
66 C27	2.9104  2.6048  11.6272 C.ar	1 RES1 0.0
67 C28	2.9577  3.8763  12.1633 C.ar	1 RES1 0.0
68 H36	3.7989  4.2965  12.2967 H	1 RES1 0.0
69 C29	1.8028  4.548  12.5092 C.ar	1 RES1 0.0
70 H37	1.8687  5.4268  12.8637 H	1 RES1 0.0
71 C30	0.5495  3.974  12.3535 C.ar	1 RES1 0.0
72 C31	0.5098  2.6837  11.8273 C.ar	1 RES1 0.0
73 H38	-0.3304  2.2576  11.7075 H	1 RES1 0.0
74 C32	1.6719  2.0065  11.4728 C.ar	1 RES1 0.0
75 H39	1.6141  1.1258  11.122 H	1 RES1 0.0
76 C33	-0.7118  4.7473  12.7352 C.3	1 RES1 0.0
77 C34	-0.5719  5.306  14.178 C.3	1 RES1 0.0
78 H40	0.2681  5.8046  14.2546 H	1 RES1 0.0
79 H41	-0.5716  4.5628  14.8178 H	1 RES1 0.0
80 H42	-1.3253  5.9032  14.3707 H	1 RES1 0.0
81 C35	-0.8539  5.9495  11.8817 C.3	1 RES1 0.0
82 H43	-0.9532  5.6761  10.9454 H	1 RES1 0.0
83 H44	-0.0562  6.5112  11.9743 H	1 RES1 0.0
84 H45	-1.6447  6.4562  12.1596 H	1 RES1 0.0
85 C36	-1.936  3.8939  12.7463 C.3	1 RES1 0.0
86 H46	-2.6598  4.3662  13.2083 H	1 RES1 0.0
87 H47	-1.7443  3.0528  13.2133 H	1 RES1 0.0
88 H48	-2.2077  3.7003  11.8249 H	1 RES1 0.0
@<TRIPOS>BOND
1 1 5 1
1 1 8 1
1 1 11 1
1 2 5 1
1 2 14 1
1 2 16 1
1 3 8 1
1 3 14 1
1 3 18 1
1 4 11 1
1 4 16 1
1 4 18 1
1 5 6 1
1 5 7 1
1 8 9 1
1 8 10 1
1 11 12 1
1 11 13 1
1 14 15 1
1 14 20 1
1 16 17 1
1 16 43 1
1 18 19 1
1 18 66 1
1 20 21 ar
1 20 28 ar
1 21 22 1
1 21 23 ar
1 23 24 1
1 23 25 ar
1 25 26 ar
1 25 30 1
1 26 27 1
1 26 28 ar
1 28 29 1
1 30 31 1
1 30 35 1
1 30 39 1
1 31 32 1
1 31 33 1
1 31 34 1
1 35 36 1
1 35 37 1
1 35 38 1
1 39 40 1
1 39 41 1
1 39 42 1
1 43 44 ar
1 43 51 ar
1 44 45 1
1 44 46 ar
1 46 47 1
1 46 48 ar
1 48 49 ar
1 48 53 1
1 49 50 1
1 49 51 ar
1 51 52 1
1 53 54 1
1 53 58 1
1 53 62 1
1 54 55 1
1 54 56 1
1 54 57 1
1 58 59 1
1 58 60 1
1 58 61 1
1 62 63 1
1 62 64 1
1 62 65 1
1 66 67 ar
1 66 74 ar
1 67 68 1
1 67 69 ar
1 69 70 1
1 69 71 ar
1 71 72 ar
1 71 76 1
1 72 73 1
1 72 74 ar
1 74 75 1
1 76 77 1
1 76 81 1
1 76 85 1
1 77 78 1
1 77 79 1
1 77 80 1
1 81 82 1
1 81 83 1
1 81 84 1
1 85 86 1
1 85 87 1
1 85 88 1
@<TRIPOS>SUBSTRUCTURE
1 RES1 88

