@<TRIPOS>MOLECULE

31	31	1
SMALL
PartialCharges
****
Generated from molSimplify

@<TRIPOS>ATOM
1 P1	5.8814  0.0715  10.8145 P.3	1 RES1 0.0
2 N1	3.7858  -0.5147  12.0887 N.2	1 RES1 0.0
3 N2	4.2249  0.6648  12.5755 N.2	1 RES1 0.0
4 C1	4.5576  -0.9954  11.1207 C.2	1 RES1 0.0
5 C2	5.3385  1.1651  12.0333 C.2	1 RES1 0.0
6 C3	4.2122  -2.3106  10.4397 C.3	1 RES1 0.0
7 C4	5.3972  -2.8735  9.7362 C.3	1 RES1 0.0
8 H1	5.1529  -3.6973  9.3094 H	1 RES1 0.0
9 H2	6.0985  -3.0361  10.3712 H	1 RES1 0.0
10 H3	5.7028  -2.248  9.0749 H	1 RES1 0.0
11 C5	3.1498  -2.0604  9.4501 C.3	1 RES1 0.0
12 H4	2.3726  -1.7155  9.8947 H	1 RES1 0.0
13 H5	2.9256  -2.8824  9.0074 H	1 RES1 0.0
14 H6	3.4584  -1.4225  8.8029 H	1 RES1 0.0
15 C6	3.7312  -3.2988  11.4311 C.3	1 RES1 0.0
16 H7	2.9663  -2.945  11.8908 H	1 RES1 0.0
17 H8	4.4289  -3.4829  12.0652 H	1 RES1 0.0
18 H9	3.4867  -4.1101  10.9809 H	1 RES1 0.0
19 C7	5.9244  2.4732  12.5042 C.3	1 RES1 0.0
20 C8	6.5277  2.2945  13.883 C.3	1 RES1 0.0
21 H10	5.8428  2.0247  14.4993 H	1 RES1 0.0
22 H11	6.9123  3.1237  14.1738 H	1 RES1 0.0
23 H12	7.2108  1.6208  13.8483 H	1 RES1 0.0
24 C9	4.8593  3.549  12.5727 C.3	1 RES1 0.0
25 H13	4.4742  3.6741  11.7032 H	1 RES1 0.0
26 H14	5.2561  4.3728  12.8691 H	1 RES1 0.0
27 H15	4.175  3.2845  13.1908 H	1 RES1 0.0
28 C10	7.018  2.9217  11.54 C.3	1 RES1 0.0
29 H16	6.6423  3.0504  10.6658 H	1 RES1 0.0
30 H17	7.7025  2.2498  11.4977 H	1 RES1 0.0
31 H18	7.3981  3.7473  11.8495 H	1 RES1 0.0
@<TRIPOS>BOND
1 1 4 1
1 1 5 2
1 2 3 1
1 2 4 2
1 3 5 1
1 4 6 1
1 5 19 1
1 6 7 1
1 6 11 1
1 6 15 1
1 7 8 1
1 7 9 1
1 7 10 1
1 11 12 1
1 11 13 1
1 11 14 1
1 15 16 1
1 15 17 1
1 15 18 1
1 19 20 1
1 19 24 1
1 19 28 1
1 20 21 1
1 20 22 1
1 20 23 1
1 24 25 1
1 24 26 1
1 24 27 1
1 28 29 1
1 28 30 1
1 28 31 1
@<TRIPOS>SUBSTRUCTURE
1 RES1 31

