@<TRIPOS>MOLECULE

29	28	1
SMALL
PartialCharges
****
Generated from molSimplify

@<TRIPOS>ATOM
1 P1	0.9701  -1.2745  -1.6874 P.3	1 RES1 0.0
2 O1	1.7432  -0.4896  -2.8691 O.3	1 RES1 0.0
3 C1	-0.3264  -2.0491  -2.7201 C.3	1 RES1 0.0
4 H1	0.1057  -2.3963  -3.5521 H	1 RES1 0.0
5 C2	-1.3236  -0.9654  -3.1199 C.3	1 RES1 0.0
6 H2	-1.9647  -1.3319  -3.7639 H	1 RES1 0.0
7 H3	-0.8436  -0.2141  -3.5284 H	1 RES1 0.0
8 H4	-1.8027  -0.652  -2.3247 H	1 RES1 0.0
9 C3	-1.0256  -3.2185  -2.0251 C.3	1 RES1 0.0
10 H5	-1.4074  -2.913  -1.1764 H	1 RES1 0.0
11 H6	-0.3751  -3.9319  -1.8529 H	1 RES1 0.0
12 H7	-1.7405  -3.5605  -2.6015 H	1 RES1 0.0
13 C4	2.1067  -2.6102  -1.1527 C.3	1 RES1 0.0
14 H8	1.5526  -3.2987  -0.6853 H	1 RES1 0.0
15 C5	3.1409  -2.1029  -0.145 C.3	1 RES1 0.0
16 H9	3.6757  -2.8561  0.1819 H	1 RES1 0.0
17 H10	2.6811  -1.677  0.6089 H	1 RES1 0.0
18 H11	3.7284  -1.4503  -0.579 H	1 RES1 0.0
19 C6	2.7729  -3.3002  -2.3441 C.3	1 RES1 0.0
20 H12	3.3476  -2.6597  -2.8141 H	1 RES1 0.0
21 H13	2.0845  -3.6318  -2.9573 H	1 RES1 0.0
22 H14	3.3157  -4.0508  -2.0251 H	1 RES1 0.0
23 C7	2.8249  0.4317  -2.5787 C.3	1 RES1 0.0
24 H15	3.6788  -0.062  -2.4961 H	1 RES1 0.0
25 H16	2.651  0.9002  -1.7238 H	1 RES1 0.0
26 C8	2.9106  1.4194  -3.6953 C.3	1 RES1 0.0
27 H17	3.0313  0.9437  -4.5432 H	1 RES1 0.0
28 H18	3.6724  2.0174  -3.5442 H	1 RES1 0.0
29 H19	2.0846  1.9452  -3.7296 H	1 RES1 0.0
@<TRIPOS>BOND
1 1 2 1
1 1 3 1
1 1 13 1
1 2 23 1
1 3 4 1
1 3 5 1
1 3 9 1
1 5 6 1
1 5 7 1
1 5 8 1
1 9 10 1
1 9 11 1
1 9 12 1
1 13 14 1
1 13 15 1
1 13 19 1
1 15 16 1
1 15 17 1
1 15 18 1
1 19 20 1
1 19 21 1
1 19 22 1
1 23 24 1
1 23 25 1
1 23 26 1
1 26 27 1
1 26 28 1
1 26 29 1
@<TRIPOS>SUBSTRUCTURE
1 RES1 29

