@<TRIPOS>MOLECULE

51	53	1
SMALL
PartialCharges
****
Generated from molSimplify

@<TRIPOS>ATOM
1 P1	11.0795  0.114  -7.0779 P.3	1 RES1 0.0
2 Si1	11.789  -2.6791  -8.5436 Si	1 RES1 0.0
3 Si2	13.4068  1.3565  -5.3056 Si	1 RES1 0.0
4 C1	11.6441  -0.8068  -8.5934 C.2	1 RES1 0.0
5 C2	11.9658  0.0094  -9.6217 C.2	1 RES1 0.0
6 C3	11.9575  1.5265  -9.3509 C.3	1 RES1 0.0
7 H1	12.2802  2.0222  -10.1568 H	1 RES1 0.0
8 C4	12.8689  1.8092  -8.1542 C.2	1 RES1 0.0
9 C5	12.57  1.2325  -6.9571 C.2	1 RES1 0.0
10 C6	9.9729  1.3004  -7.9296 C.ar	1 RES1 0.0
11 C7	8.6748  1.5925  -7.5602 C.ar	1 RES1 0.0
12 H2	8.28  1.1609  -6.8119 H	1 RES1 0.0
13 C8	7.9449  2.5348  -8.302 C.ar	1 RES1 0.0
14 H3	7.0355  2.7025  -8.0809 H	1 RES1 0.0
15 C9	8.5202  3.2057  -9.3264 C.ar	1 RES1 0.0
16 H4	8.0325  3.8879  -9.773 H	1 RES1 0.0
17 C10	9.8162  2.9079  -9.7329 C.ar	1 RES1 0.0
18 H5	10.2048  3.3508  -10.4795 H	1 RES1 0.0
19 C11	10.542  1.9393  -9.0146 C.ar	1 RES1 0.0
20 C12	12.3473  -0.3845  -11.0377 C.3	1 RES1 0.0
21 H6	13.2793  -0.13  -11.2078 H	1 RES1 0.0
22 H7	11.7616  0.0754  -11.6744 H	1 RES1 0.0
23 H8	12.2483  -1.3531  -11.1467 H	1 RES1 0.0
24 C13	14.0381  2.695  -8.4634 C.3	1 RES1 0.0
25 H9	14.4886  2.9437  -7.6318 H	1 RES1 0.0
26 H10	13.7247  3.5035  -8.9182 H	1 RES1 0.0
27 H11	14.666  2.2144  -9.0447 H	1 RES1 0.0
28 C14	13.2566  -3.2754  -9.5523 C.3	1 RES1 0.0
29 H12	14.0123  -2.6667  -9.4198 H	1 RES1 0.0
30 H13	13.0143  -3.2943  -10.5013 H	1 RES1 0.0
31 H14	13.5092  -4.1763  -9.2628 H	1 RES1 0.0
32 C15	12.172  -3.2057  -6.8128 C.3	1 RES1 0.0
33 H15	11.4513  -2.9155  -6.2144 H	1 RES1 0.0
34 H16	13.0164  -2.7967  -6.5284 H	1 RES1 0.0
35 H17	12.2524  -4.18  -6.777 H	1 RES1 0.0
36 C16	10.2017  -3.4111  -9.162 C.3	1 RES1 0.0
37 H18	10.1224  -4.3346  -8.8441 H	1 RES1 0.0
38 H19	10.1987  -3.4017  -10.1437 H	1 RES1 0.0
39 H20	9.4471  -2.8834  -8.8267 H	1 RES1 0.0
40 C17	12.2864  2.3011  -4.1469 C.3	1 RES1 0.0
41 H21	12.1452  3.2076  -4.4962 H	1 RES1 0.0
42 H22	12.7019  2.352  -3.262 H	1 RES1 0.0
43 H23	11.4245  1.8394  -4.0775 H	1 RES1 0.0
44 C18	15.0825  2.1729  -5.3575 C.3	1 RES1 0.0
45 H24	15.6609  1.6924  -5.9877 H	1 RES1 0.0
46 H25	15.4836  2.1503  -4.4657 H	1 RES1 0.0
47 H26	14.9846  3.1021  -5.6475 H	1 RES1 0.0
48 C19	13.7041  -0.3581  -4.6432 C.3	1 RES1 0.0
49 H27	12.8514  -0.8368  -4.5791 H	1 RES1 0.0
50 H28	14.1134  -0.2997  -3.7548 H	1 RES1 0.0
51 H29	14.3051  -0.8424  -5.2463 H	1 RES1 0.0
@<TRIPOS>BOND
1 1 4 1
1 1 9 1
1 1 10 1
1 2 4 1
1 2 28 1
1 2 32 1
1 2 36 1
1 3 9 1
1 3 40 1
1 3 44 1
1 3 48 1
1 4 5 2
1 5 6 1
1 5 20 1
1 6 7 1
1 6 8 1
1 6 19 1
1 8 9 2
1 8 24 1
1 10 11 ar
1 10 19 ar
1 11 12 1
1 11 13 ar
1 13 14 1
1 13 15 ar
1 15 16 1
1 15 17 ar
1 17 18 1
1 17 19 ar
1 20 21 1
1 20 22 1
1 20 23 1
1 24 25 1
1 24 26 1
1 24 27 1
1 28 29 1
1 28 30 1
1 28 31 1
1 32 33 1
1 32 34 1
1 32 35 1
1 36 37 1
1 36 38 1
1 36 39 1
1 40 41 1
1 40 42 1
1 40 43 1
1 44 45 1
1 44 46 1
1 44 47 1
1 48 49 1
1 48 50 1
1 48 51 1
@<TRIPOS>SUBSTRUCTURE
1 RES1 51

