@<TRIPOS>MOLECULE

53	56	1
SMALL
PartialCharges
****
Generated from molSimplify

@<TRIPOS>ATOM
1 P1	0.7658  0.2982  7.7504 P.3	1 RES1 0.0
2 C1	0.7384  0.0279  9.5672 C.ar	1 RES1 0.0
3 C2	1.3945  0.8492  10.5196 C.ar	1 RES1 0.0
4 C3	2.2914  2.0115  10.1835 C.ar	1 RES1 0.0
5 C4	1.7812  3.2748  9.9339 C.ar	1 RES1 0.0
6 H1	0.8408  3.4096  9.9365 H	1 RES1 0.0
7 C5	2.6302  4.3454  9.6805 C.ar	1 RES1 0.0
8 H2	2.2653  5.2071  9.5137 H	1 RES1 0.0
9 C6	4.0016  4.1652  9.6703 C.ar	1 RES1 0.0
10 H3	4.5787  4.891  9.4653 H	1 RES1 0.0
11 C7	4.5247  2.9226  9.9619 C.ar	1 RES1 0.0
12 H4	5.4652  2.7918  9.9683 H	1 RES1 0.0
13 C8	3.6724  1.8645  10.2446 C.ar	1 RES1 0.0
14 H5	4.0403  1.0214  10.4852 H	1 RES1 0.0
15 C9	1.2225  0.5684  11.8705 C.ar	1 RES1 0.0
16 H6	1.6618  1.1095  12.5161 H	1 RES1 0.0
17 C10	0.4241  -0.4846  12.2958 C.ar	1 RES1 0.0
18 H7	0.3214  -0.6569  13.2253 H	1 RES1 0.0
19 C11	-0.2195  -1.2783  11.3765 C.ar	1 RES1 0.0
20 H8	-0.7744  -1.9936  11.6643 H	1 RES1 0.0
21 C12	-0.0482  -1.0238  10.0269 C.ar	1 RES1 0.0
22 H9	-0.483  -1.5838  9.394 H	1 RES1 0.0
23 C13	-0.0024  1.9484  7.5313 C.ar	1 RES1 0.0
24 C14	-1.1943  2.3288  8.1781 C.ar	1 RES1 0.0
25 C15	-1.9901  1.4222  9.0732 C.ar	1 RES1 0.0
26 C16	-2.687  0.3366  8.5613 C.ar	1 RES1 0.0
27 H10	-2.6303  0.1343  7.6344 H	1 RES1 0.0
28 C17	-3.4705  -0.4593  9.3966 C.ar	1 RES1 0.0
29 H11	-3.947  -1.1978  9.0363 H	1 RES1 0.0
30 C18	-3.5558  -0.1756  10.7475 C.ar	1 RES1 0.0
31 H12	-4.0801  -0.7249  11.3192 H	1 RES1 0.0
32 C19	-2.875  0.9087  11.2606 C.ar	1 RES1 0.0
33 H13	-2.9354  1.108  12.1876 H	1 RES1 0.0
34 C20	-2.102  1.7125  10.4305 C.ar	1 RES1 0.0
35 H14	-1.6463  2.4637  10.7921 H	1 RES1 0.0
36 C21	-1.6985  3.6103  7.9947 C.ar	1 RES1 0.0
37 H15	-2.4854  3.8711  8.4595 H	1 RES1 0.0
38 C22	-1.0748  4.5207  7.1455 C.ar	1 RES1 0.0
39 H16	-1.437  5.3915  7.0233 H	1 RES1 0.0
40 C23	0.0739  4.1412  6.4859 C.ar	1 RES1 0.0
41 H17	0.4996  4.7485  5.8926 H	1 RES1 0.0
42 C24	0.6047  2.8889  6.682 C.ar	1 RES1 0.0
43 H18	1.4062  2.6523  6.23 H	1 RES1 0.0
44 C25	2.5367  0.5052  7.2282 C.3	1 RES1 0.0
45 H19	2.8371  1.4245  7.4842 H	1 RES1 0.0
46 C26	3.4671  -0.5095  7.8852 C.3	1 RES1 0.0
47 H20	3.2396  -1.4105  7.5746 H	1 RES1 0.0
48 H21	3.3653  -0.4642  8.8593 H	1 RES1 0.0
49 H22	4.3953  -0.3051  7.6446 H	1 RES1 0.0
50 C27	2.6541  0.3613  5.7054 C.3	1 RES1 0.0
51 H23	3.5571  0.6155  5.4215 H	1 RES1 0.0
52 H24	1.998  0.946  5.2713 H	1 RES1 0.0
53 H25	2.4817  -0.5693  5.4508 H	1 RES1 0.0
@<TRIPOS>BOND
1 1 2 1
1 1 23 1
1 1 44 1
1 2 3 ar
1 2 21 ar
1 3 4 1
1 3 15 ar
1 4 5 ar
1 4 13 ar
1 5 6 1
1 5 7 ar
1 7 8 1
1 7 9 ar
1 9 10 1
1 9 11 ar
1 11 12 1
1 11 13 ar
1 13 14 1
1 15 16 1
1 15 17 ar
1 17 18 1
1 17 19 ar
1 19 20 1
1 19 21 ar
1 21 22 1
1 23 24 ar
1 23 42 ar
1 24 25 1
1 24 36 ar
1 25 26 ar
1 25 34 ar
1 26 27 1
1 26 28 ar
1 28 29 1
1 28 30 ar
1 30 31 1
1 30 32 ar
1 32 33 1
1 32 34 ar
1 34 35 1
1 36 37 1
1 36 38 ar
1 38 39 1
1 38 40 ar
1 40 41 1
1 40 42 ar
1 42 43 1
1 44 45 1
1 44 46 1
1 44 50 1
1 46 47 1
1 46 48 1
1 46 49 1
1 50 51 1
1 50 52 1
1 50 53 1
@<TRIPOS>SUBSTRUCTURE
1 RES1 53

