@<TRIPOS>MOLECULE

50	55	1
SMALL
PartialCharges
****
Generated from molSimplify

@<TRIPOS>ATOM
1 S1	1.8319  -0.6623  6.6994 S.3	1 RES1 0.0
2 P1	3.6169  1.6923  5.1377 P.3	1 RES1 0.0
3 O1	3.8154  1.642  6.7229 O.3	1 RES1 0.0
4 O2	3.9371  0.1449  4.7548 O.3	1 RES1 0.0
5 O3	6.9828  4.4224  4.7299 O.3	1 RES1 0.0
6 N1	4.9604  2.4561  4.6053 N.3	1 RES1 0.0
7 C1	4.327  -0.8624  5.6303 C.ar	1 RES1 0.0
8 C2	3.4972  -1.2744  6.5948 C.ar	1 RES1 0.0
9 C3	3.9534  -2.3132  7.5165 C.ar	1 RES1 0.0
10 C4	3.2058  -2.7952  8.5985 C.ar	1 RES1 0.0
11 H1	2.3328  -2.4522  8.7479 H	1 RES1 0.0
12 C5	3.7001  -3.7453  9.4419 C.ar	1 RES1 0.0
13 H2	3.1853  -4.0439  10.1822 H	1 RES1 0.0
14 C6	4.9437  -4.2657  9.2142 C.ar	1 RES1 0.0
15 H3	5.2697  -4.9418  9.7943 H	1 RES1 0.0
16 C7	5.736  -3.8488  8.1785 C.ar	1 RES1 0.0
17 H4	6.6029  -4.2164  8.0575 H	1 RES1 0.0
18 C8	5.2404  -2.8602  7.303 C.ar	1 RES1 0.0
19 C9	6.0392  -2.3861  6.2175 C.ar	1 RES1 0.0
20 H5	6.894  -2.7686  6.0574 H	1 RES1 0.0
21 C10	5.5805  -1.3818  5.4061 C.ar	1 RES1 0.0
22 H6	6.1204  -1.0497  4.7014 H	1 RES1 0.0
23 C11	2.8426  1.6933  7.7087 C.ar	1 RES1 0.0
24 C12	1.9446  0.6633  7.8831 C.ar	1 RES1 0.0
25 C13	0.9995  0.7195  8.9508 C.ar	1 RES1 0.0
26 C14	0.0548  -0.2651  9.1821 C.ar	1 RES1 0.0
27 H7	0.0318  -1.03  8.6198 H	1 RES1 0.0
28 C15	-0.8615  -0.1607  10.2249 C.ar	1 RES1 0.0
29 H8	-1.5474  -0.8092  10.3281 H	1 RES1 0.0
30 C16	-0.7603  0.9077  11.1111 C.ar	1 RES1 0.0
31 H9	-1.3599  0.9629  11.8442 H	1 RES1 0.0
32 C17	0.189  1.8776  10.9474 C.ar	1 RES1 0.0
33 H10	0.2396  2.6  11.5631 H	1 RES1 0.0
34 C18	1.109  1.8096  9.8441 C.ar	1 RES1 0.0
35 C19	2.0404  2.8435  9.6341 C.ar	1 RES1 0.0
36 H11	2.0625  3.5886  10.2249 H	1 RES1 0.0
37 C20	2.9115  2.7774  8.5842 C.ar	1 RES1 0.0
38 H12	3.5577  3.4614  8.4525 H	1 RES1 0.0
39 C21	6.3539  2.0796  5.1036 C.3	1 RES1 0.0
40 H13	6.2988  1.3749  5.7976 H	1 RES1 0.0
41 H14	6.9148  1.7494  4.3597 H	1 RES1 0.0
42 C22	6.9381  3.3619  5.6872 C.3	1 RES1 0.0
43 H15	6.3873  3.6457  6.4631 H	1 RES1 0.0
44 H16	7.8536  3.1815  6.0182 H	1 RES1 0.0
45 C23	5.6542  4.7398  4.2957 C.3	1 RES1 0.0
46 H17	5.6992  5.4878  3.6479 H	1 RES1 0.0
47 H18	5.1286  5.0492  5.0751 H	1 RES1 0.0
48 C24	4.9406  3.5935  3.6586 C.3	1 RES1 0.0
49 H19	4.0061  3.8468  3.4522 H	1 RES1 0.0
50 H20	5.3912  3.3402  2.8151 H	1 RES1 0.0
@<TRIPOS>BOND
1 1 8 1
1 1 24 1
1 2 3 1
1 2 4 1
1 2 6 1
1 3 23 1
1 4 7 1
1 5 42 1
1 5 45 1
1 6 39 1
1 6 48 1
1 7 8 ar
1 7 21 ar
1 8 9 ar
1 9 10 ar
1 9 18 ar
1 10 11 1
1 10 12 ar
1 12 13 1
1 12 14 ar
1 14 15 1
1 14 16 ar
1 16 17 1
1 16 18 ar
1 18 19 ar
1 19 20 1
1 19 21 ar
1 21 22 1
1 23 24 ar
1 23 37 ar
1 24 25 ar
1 25 26 ar
1 25 34 ar
1 26 27 1
1 26 28 ar
1 28 29 1
1 28 30 ar
1 30 31 1
1 30 32 ar
1 32 33 1
1 32 34 ar
1 34 35 ar
1 35 36 1
1 35 37 ar
1 37 38 1
1 39 40 1
1 39 41 1
1 39 42 1
1 42 43 1
1 42 44 1
1 45 46 1
1 45 47 1
1 45 48 1
1 48 49 1
1 48 50 1
@<TRIPOS>SUBSTRUCTURE
1 RES1 50

