@<TRIPOS>MOLECULE

41	41	1
SMALL
PartialCharges
****
Generated from molSimplify

@<TRIPOS>ATOM
1 P1	5.9803  -0.6953  2.245 P.3	1 RES1 0.0
2 C1	4.3926  0.2324  2.1454 C.ar	1 RES1 0.0
3 C2	4.2257  1.5609  2.6047 C.ar	1 RES1 0.0
4 C3	5.3076  2.398  3.2775 C.3	1 RES1 0.0
5 H1	6.1472  1.8576  3.3115 H	1 RES1 0.0
6 C4	4.9175  2.7756  4.7161 C.3	1 RES1 0.0
7 H2	4.1323  3.3621  4.6986 H	1 RES1 0.0
8 H3	5.6652  3.2437  5.1446 H	1 RES1 0.0
9 H4	4.7084  1.963  5.2223 H	1 RES1 0.0
10 C5	5.5968  3.6936  2.4986 C.3	1 RES1 0.0
11 H5	5.8313  3.4719  1.5729 H	1 RES1 0.0
12 H6	6.3445  4.1682  2.9195 H	1 RES1 0.0
13 H7	4.7999  4.264  2.5072 H	1 RES1 0.0
14 C6	2.9716  2.1516  2.4518 C.ar	1 RES1 0.0
15 H8	2.848  3.0414  2.759 H	1 RES1 0.0
16 C7	1.9031  1.4981  1.8725 C.ar	1 RES1 0.0
17 H9	1.063  1.934  1.7892 H	1 RES1 0.0
18 C8	2.0651  0.2023  1.4151 C.ar	1 RES1 0.0
19 H10	1.3392  -0.2594  1.012 H	1 RES1 0.0
20 C9	3.2997  -0.4148  1.5522 C.ar	1 RES1 0.0
21 H11	3.4079  -1.3033  1.235 H	1 RES1 0.0
22 C10	6.8793  -0.2653  0.6805 C.3	1 RES1 0.0
23 H12	7.7393  -0.7749  0.6859 H	1 RES1 0.0
24 C11	7.2331  1.2144  0.6214 C.3	1 RES1 0.0
25 H13	7.8079  1.3819  -0.1554 H	1 RES1 0.0
26 H14	7.7075  1.4701  1.4395 H	1 RES1 0.0
27 H15	6.4122  1.7435  0.5406 H	1 RES1 0.0
28 C12	6.114  -0.6823  -0.5803 C.3	1 RES1 0.0
29 H16	5.2194  -0.282  -0.566 H	1 RES1 0.0
30 H17	6.0349  -1.6585  -0.6065 H	1 RES1 0.0
31 H18	6.5973  -0.3724  -1.3736 H	1 RES1 0.0
32 C13	5.5636  -2.4887  1.9945 C.3	1 RES1 0.0
33 H19	5.0356  -2.5636  1.1489 H	1 RES1 0.0
34 C14	6.8525  -3.3073  1.8156 C.3	1 RES1 0.0
35 H20	7.4055  -3.2265  2.6204 H	1 RES1 0.0
36 H21	7.3496  -2.9682  1.0424 H	1 RES1 0.0
37 H22	6.6243  -4.2489  1.6692 H	1 RES1 0.0
38 C15	4.7221  -3.0809  3.1261 C.3	1 RES1 0.0
39 H23	4.4604  -3.9971  2.8941 H	1 RES1 0.0
40 H24	3.9192  -2.5345  3.2557 H	1 RES1 0.0
41 H25	5.2466  -3.0909  3.9535 H	1 RES1 0.0
@<TRIPOS>BOND
1 1 2 1
1 1 22 1
1 1 32 1
1 2 3 ar
1 2 20 ar
1 3 4 1
1 3 14 ar
1 4 5 1
1 4 6 1
1 4 10 1
1 6 7 1
1 6 8 1
1 6 9 1
1 10 11 1
1 10 12 1
1 10 13 1
1 14 15 1
1 14 16 ar
1 16 17 1
1 16 18 ar
1 18 19 1
1 18 20 ar
1 20 21 1
1 22 23 1
1 22 24 1
1 22 28 1
1 24 25 1
1 24 26 1
1 24 27 1
1 28 29 1
1 28 30 1
1 28 31 1
1 32 33 1
1 32 34 1
1 32 38 1
1 34 35 1
1 34 36 1
1 34 37 1
1 38 39 1
1 38 40 1
1 38 41 1
@<TRIPOS>SUBSTRUCTURE
1 RES1 41

