@<TRIPOS>MOLECULE

27	27	1
SMALL
PartialCharges
****
Generated from molSimplify

@<TRIPOS>ATOM
1 S1	1.1028  3.3055  0.687 S.3	1 RES1 0.0
2 P1	2.3569  1.1895  2.6225 P.3	1 RES1 0.0
3 O1	3.6763  0.3053  2.3685 O.3	1 RES1 0.0
4 H1	4.0944  0.4309  2.9561 H	1 RES1 0.0
5 C1	1.117  4.5028  -1.8512 C.3	1 RES1 0.0
6 H2	1.583  4.4703  -2.7128 H	1 RES1 0.0
7 H3	1.2087  5.3981  -1.4636 H	1 RES1 0.0
8 H4	0.1677  4.301  -1.9864 H	1 RES1 0.0
9 C2	1.7126  3.4942  -0.9229 C.2	1 RES1 0.0
10 C3	2.7405  2.626  -1.141 C.2	1 RES1 0.0
11 H5	3.2162  2.5785  -1.9611 H	1 RES1 0.0
12 C4	3.0309  1.8039  -0.0306 C.2	1 RES1 0.0
13 H6	3.7179  1.1489  -0.0333 H	1 RES1 0.0
14 C5	2.2269  2.0419  1.05 C.2	1 RES1 0.0
15 C6	1.0342  -0.0999  2.6569 C.3	1 RES1 0.0
16 C7	1.2215  -1.0491  1.4726 C.3	1 RES1 0.0
17 H7	0.5196  -1.7327  1.4871 H	1 RES1 0.0
18 H8	2.0986  -1.481  1.5357 H	1 RES1 0.0
19 H9	1.1659  -0.5419  0.6354 H	1 RES1 0.0
20 C8	1.1902  -0.8693  3.9781 C.3	1 RES1 0.0
21 H10	0.5024  -1.5651  4.0331 H	1 RES1 0.0
22 H11	1.0888  -0.2498  4.7307 H	1 RES1 0.0
23 H12	2.0776  -1.2832  4.0124 H	1 RES1 0.0
24 C9	-0.363  0.5381  2.6073 C.3	1 RES1 0.0
25 H13	-1.0443  -0.1655  2.6235 H	1 RES1 0.0
26 H14	-0.4539  1.0618  1.7836 H	1 RES1 0.0
27 H15	-0.4807  1.1264  3.3824 H	1 RES1 0.0
@<TRIPOS>BOND
1 1 9 1
1 1 14 1
1 2 3 1
1 2 14 1
1 2 15 1
1 3 4 1
1 5 6 1
1 5 7 1
1 5 8 1
1 5 9 1
1 9 10 2
1 10 11 1
1 10 12 1
1 12 13 1
1 12 14 2
1 15 16 1
1 15 20 1
1 15 24 1
1 16 17 1
1 16 18 1
1 16 19 1
1 20 21 1
1 20 22 1
1 20 23 1
1 24 25 1
1 24 26 1
1 24 27 1
@<TRIPOS>SUBSTRUCTURE
1 RES1 27

