@<TRIPOS>MOLECULE

46	48	1
SMALL
PartialCharges
****
Generated from molSimplify

@<TRIPOS>ATOM
1 P1	17.4902  6.5871  5.29 P.3	1 RES1 0.0
2 O1	17.4646  5.8292  3.8409 O.3	1 RES1 0.0
3 O2	15.2201  5.6907  2.404 O.3	1 RES1 0.0
4 O3	18.5319  3.6502  4.9498 O.3	1 RES1 0.0
5 C1	16.8444  4.5888  3.6626 C.ar	1 RES1 0.0
6 C2	15.6922  4.5117  2.9071 C.ar	1 RES1 0.0
7 C3	15.089  3.2714  2.707 C.ar	1 RES1 0.0
8 H1	14.3152  3.2111  2.1961 H	1 RES1 0.0
9 C4	15.6325  2.1361  3.2625 C.ar	1 RES1 0.0
10 C5	16.7817  2.2155  4.0095 C.ar	1 RES1 0.0
11 H2	17.1396  1.4445  4.3865 H	1 RES1 0.0
12 C6	17.4189  3.4455  4.2081 C.ar	1 RES1 0.0
13 C7	14.0858  5.635  1.5485 C.3	1 RES1 0.0
14 H3	13.8606  6.5212  1.2564 H	1 RES1 0.0
15 H4	13.343  5.2573  2.0263 H	1 RES1 0.0
16 H5	14.2865  5.0881  0.7858 H	1 RES1 0.0
17 C8	14.9706  0.7865  3.0683 C.3	1 RES1 0.0
18 H6	14.1875  0.8893  2.5214 H	1 RES1 0.0
19 H7	14.7195  0.4262  3.9217 H	1 RES1 0.0
20 H8	15.5856  0.1882  2.6365 H	1 RES1 0.0
21 C9	19.2862  2.5113  5.3824 C.3	1 RES1 0.0
22 H9	20.0498  2.8066  5.8847 H	1 RES1 0.0
23 H10	19.58  2.012  4.6168 H	1 RES1 0.0
24 H11	18.7353  1.954  5.9365 H	1 RES1 0.0
25 C10	16.0457  5.8955  6.1495 C.ar	1 RES1 0.0
26 C11	14.8086  6.5041  5.9969 C.ar	1 RES1 0.0
27 H12	14.7279  7.273  5.4817 H	1 RES1 0.0
28 C12	13.6937  5.9652  6.6129 C.ar	1 RES1 0.0
29 H13	12.87  6.3896  6.528 H	1 RES1 0.0
30 C13	13.7885  4.829  7.3382 C.ar	1 RES1 0.0
31 H14	13.036  4.474  7.7527 H	1 RES1 0.0
32 C14	15.019  4.1919  7.4605 C.ar	1 RES1 0.0
33 H15	15.0801  3.3948  7.9355 H	1 RES1 0.0
34 C15	16.148  4.7316  6.8863 C.ar	1 RES1 0.0
35 H16	16.9735  4.3149  6.9943 H	1 RES1 0.0
36 C16	17.0386  8.2691  4.8442 C.ar	1 RES1 0.0
37 C17	17.049  9.2476  5.8386 C.ar	1 RES1 0.0
38 H17	17.2925  9.0245  6.7079 H	1 RES1 0.0
39 C18	16.7008  10.5433  5.535 C.ar	1 RES1 0.0
40 H18	16.6899  11.1892  6.2042 H	1 RES1 0.0
41 C19	16.3686  10.8877  4.2527 C.ar	1 RES1 0.0
42 H19	16.1442  11.7678  4.0526 H	1 RES1 0.0
43 C20	16.3654  9.9441  3.2654 C.ar	1 RES1 0.0
44 H20	16.152  10.187  2.3933 H	1 RES1 0.0
45 C21	16.6783  8.6255  3.5605 C.ar	1 RES1 0.0
46 H21	16.6459  7.9796  2.8912 H	1 RES1 0.0
@<TRIPOS>BOND
1 1 2 1
1 1 25 1
1 1 36 1
1 2 5 1
1 3 6 1
1 3 13 1
1 4 12 1
1 4 21 1
1 5 6 ar
1 5 12 ar
1 6 7 ar
1 7 8 1
1 7 9 ar
1 9 10 ar
1 9 17 1
1 10 11 1
1 10 12 ar
1 13 14 1
1 13 15 1
1 13 16 1
1 17 18 1
1 17 19 1
1 17 20 1
1 21 22 1
1 21 23 1
1 21 24 1
1 25 26 ar
1 25 34 ar
1 26 27 1
1 26 28 ar
1 28 29 1
1 28 30 ar
1 30 31 1
1 30 32 ar
1 32 33 1
1 32 34 ar
1 34 35 1
1 36 37 ar
1 36 45 ar
1 37 38 1
1 37 39 ar
1 39 40 1
1 39 41 ar
1 41 42 1
1 41 43 ar
1 43 44 1
1 43 45 ar
1 45 46 1
@<TRIPOS>SUBSTRUCTURE
1 RES1 46

