@<TRIPOS>MOLECULE

34	36	1
SMALL
PartialCharges
****
Generated from molSimplify

@<TRIPOS>ATOM
1 P1	6.1264  0.495  8.6376 P.3	1 RES1 0.0
2 Cl1	3.2235  0.8063  10.0588 Cl	1 RES1 0.0
3 Cl2	7.3874  2.2698  6.2148 Cl	1 RES1 0.0
4 C1	5.5831  2.0429  9.4184 C.ar	1 RES1 0.0
5 C2	6.3891  3.1716  9.4514 C.ar	1 RES1 0.0
6 H1	7.2602  3.122  9.1032 H	1 RES1 0.0
7 C3	5.9439  4.374  9.9868 C.ar	1 RES1 0.0
8 H2	6.5182  5.1169  10.0184 H	1 RES1 0.0
9 C4	4.6669  4.4716  10.4681 C.ar	1 RES1 0.0
10 H3	4.3531  5.2946  10.7965 H	1 RES1 0.0
11 C5	3.8395  3.3717  10.4734 C.ar	1 RES1 0.0
12 H4	2.9715  3.4406  10.8282 H	1 RES1 0.0
13 C6	4.2814  2.1726  9.9617 C.ar	1 RES1 0.0
14 C7	5.9916  -0.7237  9.996 C.ar	1 RES1 0.0
15 C8	6.2558  -0.3282  11.3082 C.ar	1 RES1 0.0
16 H5	6.5269  0.554  11.4902 H	1 RES1 0.0
17 C9	6.1162  -1.2344  12.3368 C.ar	1 RES1 0.0
18 H6	6.2954  -0.9686  13.2203 H	1 RES1 0.0
19 C10	5.7172  -2.5216  12.081 C.ar	1 RES1 0.0
20 H7	5.6315  -3.1364  12.7878 H	1 RES1 0.0
21 C11	5.4454  -2.9107  10.7952 C.ar	1 RES1 0.0
22 H8	5.1659  -3.7912  10.6238 H	1 RES1 0.0
23 C12	5.5779  -2.0173  9.7494 C.ar	1 RES1 0.0
24 H9	5.3873  -2.2895  8.8698 H	1 RES1 0.0
25 C13	7.9256  0.7349  8.4201 C.ar	1 RES1 0.0
26 C14	8.8396  0.1569  9.2971 C.ar	1 RES1 0.0
27 H10	8.5252  -0.3666  10.0119 H	1 RES1 0.0
28 C15	10.2103  0.3394  9.1375 C.ar	1 RES1 0.0
29 H11	10.8087  -0.0576  9.7442 H	1 RES1 0.0
30 C16	10.693  1.0903  8.105 C.ar	1 RES1 0.0
31 H12	11.6192  1.2088  7.9981 H	1 RES1 0.0
32 C17	9.8144  1.6779  7.2188 C.ar	1 RES1 0.0
33 H13	10.1381  2.2062  6.5106 H	1 RES1 0.0
34 C18	8.4551  1.4857  7.3783 C.ar	1 RES1 0.0
@<TRIPOS>BOND
1 1 4 1
1 1 14 1
1 1 25 1
1 2 13 1
1 3 34 1
1 4 5 ar
1 4 13 ar
1 5 6 1
1 5 7 ar
1 7 8 1
1 7 9 ar
1 9 10 1
1 9 11 ar
1 11 12 1
1 11 13 ar
1 14 15 ar
1 14 23 ar
1 15 16 1
1 15 17 ar
1 17 18 1
1 17 19 ar
1 19 20 1
1 19 21 ar
1 21 22 1
1 21 23 ar
1 23 24 1
1 25 26 ar
1 25 34 ar
1 26 27 1
1 26 28 ar
1 28 29 1
1 28 30 ar
1 30 31 1
1 30 32 ar
1 32 33 1
1 32 34 ar
@<TRIPOS>SUBSTRUCTURE
1 RES1 34

