@<TRIPOS>MOLECULE

50	53	1
SMALL
PartialCharges
****
Generated from molSimplify

@<TRIPOS>ATOM
1 P1	-0.6104  0.5764  2.1927 P.3	1 RES1 0.0
2 C1	-2.2661  0.0499  2.773 C.ar	1 RES1 0.0
3 C2	-2.4782  -1.1926  3.4063 C.ar	1 RES1 0.0
4 C3	-1.4415  -2.2653  3.4863 C.ar	1 RES1 0.0
5 C4	-0.9513  -2.6683  4.7177 C.ar	1 RES1 0.0
6 H1	-1.2878  -2.2667  5.5096 H	1 RES1 0.0
7 C5	0.022  -3.6493  4.8103 C.ar	1 RES1 0.0
8 H2	0.376  -3.8919  5.6584 H	1 RES1 0.0
9 C6	0.4811  -4.28  3.6534 C.ar	1 RES1 0.0
10 H3	1.1461  -4.9565  3.7081 H	1 RES1 0.0
11 C7	-0.0368  -3.9148  2.4304 C.ar	1 RES1 0.0
12 H4	0.258  -4.3582  1.6442 H	1 RES1 0.0
13 C8	-0.9867  -2.9014  2.3336 C.ar	1 RES1 0.0
14 H5	-1.3235  -2.6454  1.4841 H	1 RES1 0.0
15 C9	-3.7259  -1.4406  3.989 C.ar	1 RES1 0.0
16 H6	-3.8665  -2.2586  4.4495 H	1 RES1 0.0
17 C10	-4.761  -0.5229  3.9117 C.ar	1 RES1 0.0
18 H7	-5.5933  -0.7021  4.3358 H	1 RES1 0.0
19 C11	-4.5719  0.659  3.2111 C.ar	1 RES1 0.0
20 H8	-5.2872  1.2748  3.11 H	1 RES1 0.0
21 C12	-3.332  0.9352  2.6579 C.ar	1 RES1 0.0
22 H9	-3.2074  1.7519  2.1889 H	1 RES1 0.0
23 C13	0.5325  0.1348  3.5649 C.ar	1 RES1 0.0
24 C14	1.509  -0.8288  3.2883 C.ar	1 RES1 0.0
25 H10	1.5481  -1.2115  2.4206 H	1 RES1 0.0
26 C15	2.42  -1.2398  4.2473 C.ar	1 RES1 0.0
27 H11	3.0768  -1.8934  4.0339 H	1 RES1 0.0
28 C16	2.3687  -0.6954  5.5138 C.ar	1 RES1 0.0
29 H12	2.9839  -0.9784  6.1793 H	1 RES1 0.0
30 C17	1.4199  0.2668  5.8114 C.ar	1 RES1 0.0
31 H13	1.3958  0.632  6.6876 H	1 RES1 0.0
32 C18	0.488  0.721  4.8609 C.ar	1 RES1 0.0
33 C19	-0.4052  1.8422  5.261 C.ar	1 RES1 0.0
34 C20	0.1539  3.1157  5.4225 C.ar	1 RES1 0.0
35 H14	1.0896  3.2343  5.3074 H	1 RES1 0.0
36 C21	-0.6431  4.2099  5.7497 C.ar	1 RES1 0.0
37 H15	-0.2548  5.0711  5.8507 H	1 RES1 0.0
38 C22	-2.0002  4.0361  5.9252 C.ar	1 RES1 0.0
39 H16	-2.5496  4.7827  6.1302 H	1 RES1 0.0
40 C23	-2.5654  2.7855  5.8058 C.ar	1 RES1 0.0
41 H17	-3.4993  2.675  5.9378 H	1 RES1 0.0
42 C24	-1.7698  1.6778  5.4899 C.ar	1 RES1 0.0
43 H18	-2.1601  0.814  5.4323 H	1 RES1 0.0
44 C25	-0.6496  2.4163  2.1833 C.3	1 RES1 0.0
45 H19	-1.2495  2.7249  2.9078 H	1 RES1 0.0
46 H20	0.2592  2.7545  2.3827 H	1 RES1 0.0
47 C26	-1.1202  3.0254  0.8649 C.3	1 RES1 0.0
48 H21	-0.5133  2.7545  0.1446 H	1 RES1 0.0
49 H22	-1.1242  4.0024  0.9379 H	1 RES1 0.0
50 H23	-2.0264  2.71  0.6641 H	1 RES1 0.0
@<TRIPOS>BOND
1 1 2 1
1 1 23 1
1 1 44 1
1 2 3 ar
1 2 21 ar
1 3 4 1
1 3 15 ar
1 4 5 ar
1 4 13 ar
1 5 6 1
1 5 7 ar
1 7 8 1
1 7 9 ar
1 9 10 1
1 9 11 ar
1 11 12 1
1 11 13 ar
1 13 14 1
1 15 16 1
1 15 17 ar
1 17 18 1
1 17 19 ar
1 19 20 1
1 19 21 ar
1 21 22 1
1 23 24 ar
1 23 32 ar
1 24 25 1
1 24 26 ar
1 26 27 1
1 26 28 ar
1 28 29 1
1 28 30 ar
1 30 31 1
1 30 32 ar
1 32 33 1
1 33 34 ar
1 33 42 ar
1 34 35 1
1 34 36 ar
1 36 37 1
1 36 38 ar
1 38 39 1
1 38 40 ar
1 40 41 1
1 40 42 ar
1 42 43 1
1 44 45 1
1 44 46 1
1 44 47 1
1 47 48 1
1 47 49 1
1 47 50 1
@<TRIPOS>SUBSTRUCTURE
1 RES1 50

