@<TRIPOS>MOLECULE

32	32	1
SMALL
PartialCharges
****
Generated from molSimplify

@<TRIPOS>ATOM
1 P1	8.9613  3.9619  8.9312 P.3	1 RES1 0.0
2 C1	9.8032  4.8291  7.5751 C.ar	1 RES1 0.0
3 C2	10.2684  4.1381  6.4437 C.ar	1 RES1 0.0
4 C3	10.0185  2.6685  6.2569 C.3	1 RES1 0.0
5 H1	9.0665  2.5443  6.0138 H	1 RES1 0.0
6 H2	10.1631  2.2164  7.1255 H	1 RES1 0.0
7 C4	10.8633  1.9771  5.2184 C.3	1 RES1 0.0
8 H3	10.6318  2.3171  4.329 H	1 RES1 0.0
9 H4	10.6974  1.012  5.252 H	1 RES1 0.0
10 H5	11.8107  2.1518  5.3982 H	1 RES1 0.0
11 C5	10.964  4.8691  5.4842 C.ar	1 RES1 0.0
12 H6	11.285  4.4234  4.7085 H	1 RES1 0.0
13 C6	11.1988  6.2111  5.6245 C.ar	1 RES1 0.0
14 H7	11.689  6.6793  4.9585 H	1 RES1 0.0
15 C7	10.7263  6.8775  6.7243 C.ar	1 RES1 0.0
16 H8	10.8717  7.8123  6.8152 H	1 RES1 0.0
17 C8	10.0412  6.1854  7.6946 C.ar	1 RES1 0.0
18 H9	9.7253  6.6481  8.4614 H	1 RES1 0.0
19 C9	7.3116  3.5033  8.2865 C.3	1 RES1 0.0
20 H10	7.4308  2.857  7.5464 H	1 RES1 0.0
21 H11	6.8086  3.0453  9.0049 H	1 RES1 0.0
22 C10	6.478  4.6701  7.7806 C.3	1 RES1 0.0
23 H12	6.2059  5.2293  8.5375 H	1 RES1 0.0
24 H13	5.6815  4.3286  7.3231 H	1 RES1 0.0
25 H14	7.0103  5.2046  7.1541 H	1 RES1 0.0
26 C11	8.601  5.2155  10.1798 C.3	1 RES1 0.0
27 H15	9.4481  5.6379  10.4693 H	1 RES1 0.0
28 H16	8.0325  5.9197  9.7796 H	1 RES1 0.0
29 C12	7.8949  4.6337  11.3933 C.3	1 RES1 0.0
30 H17	7.011  4.3018  11.1284 H	1 RES1 0.0
31 H18	7.7908  5.3298  12.0751 H	1 RES1 0.0
32 H19	8.4255  3.8953  11.7579 H	1 RES1 0.0
@<TRIPOS>BOND
1 1 2 1
1 1 19 1
1 1 26 1
1 2 3 ar
1 2 17 ar
1 3 4 1
1 3 11 ar
1 4 5 1
1 4 6 1
1 4 7 1
1 7 8 1
1 7 9 1
1 7 10 1
1 11 12 1
1 11 13 ar
1 13 14 1
1 13 15 ar
1 15 16 1
1 15 17 ar
1 17 18 1
1 19 20 1
1 19 21 1
1 19 22 1
1 22 23 1
1 22 24 1
1 22 25 1
1 26 27 1
1 26 28 1
1 26 29 1
1 29 30 1
1 29 31 1
1 29 32 1
@<TRIPOS>SUBSTRUCTURE
1 RES1 32

