@<TRIPOS>MOLECULE

49	51	1
SMALL
PartialCharges
****
Generated from molSimplify

@<TRIPOS>ATOM
1 P1	1.2145  -0.5272  1.9139 P.3	1 RES1 0.0
2 C1	0.2921  -0.4102  3.4833 C.ar	1 RES1 0.0
3 C2	-0.5021  0.7116  3.7804 C.ar	1 RES1 0.0
4 C3	-0.8021  1.8405  2.8012 C.3	1 RES1 0.0
5 H1	-0.3112  1.6879  1.9668 H	1 RES1 0.0
6 H2	-0.523  2.6953  3.1927 H	1 RES1 0.0
7 H3	-1.764  1.8661  2.6153 H	1 RES1 0.0
8 C4	-1.1048  0.7791  5.0436 C.ar	1 RES1 0.0
9 H4	-1.6932  1.4994  5.2361 H	1 RES1 0.0
10 C5	-0.8719  -0.1534  5.9985 C.ar	1 RES1 0.0
11 H5	-1.2268  -0.0339  6.8722 H	1 RES1 0.0
12 C6	-0.1176  -1.2818  5.707 C.ar	1 RES1 0.0
13 H6	-0.0168  -1.979  6.3452 H	1 RES1 0.0
14 C7	0.4894  -1.3686  4.4503 C.ar	1 RES1 0.0
15 H7	1.0533  -2.1082  4.2597 H	1 RES1 0.0
16 C8	2.7286  0.4541  2.2462 C.3	1 RES1 0.0
17 H8	3.2952  0.363  1.4277 H	1 RES1 0.0
18 C9	2.4762  1.9372  2.406 C.3	1 RES1 0.0
19 H9	1.8786  2.0881  3.1805 H	1 RES1 0.0
20 H10	2.0223  2.2833  1.5968 H	1 RES1 0.0
21 C10	3.7789  2.6884  2.6162 C.3	1 RES1 0.0
22 H11	4.3037  2.6573  1.7781 H	1 RES1 0.0
23 H12	3.5721  3.638  2.8068 H	1 RES1 0.0
24 C11	4.6009  2.1528  3.7131 C.3	1 RES1 0.0
25 H13	4.1433  2.3198  4.5746 H	1 RES1 0.0
26 H14	5.4689  2.6299  3.7318 H	1 RES1 0.0
27 C12	4.853  0.6782  3.5664 C.3	1 RES1 0.0
28 H15	5.3208  0.3435  4.3728 H	1 RES1 0.0
29 H16	5.441  0.522  2.7853 H	1 RES1 0.0
30 C13	3.5613  -0.0869  3.3824 C.3	1 RES1 0.0
31 H17	3.7703  -1.0378  3.2058 H	1 RES1 0.0
32 H18	3.0357  -0.0411  4.2195 H	1 RES1 0.0
33 C14	1.8338  -2.2545  1.7902 C.3	1 RES1 0.0
34 H19	2.2759  -2.4751  2.6592 H	1 RES1 0.0
35 C15	2.8876  -2.4043  0.6933 C.3	1 RES1 0.0
36 H20	3.6417  -1.7873  0.8718 H	1 RES1 0.0
37 H21	2.4927  -2.1618  -0.1813 H	1 RES1 0.0
38 C16	3.406  -3.8408  0.6391 C.3	1 RES1 0.0
39 H22	4.0534  -3.9278  -0.1046 H	1 RES1 0.0
40 H23	3.8814  -4.0499  1.4828 H	1 RES1 0.0
41 C17	2.2813  -4.8321  0.441 C.3	1 RES1 0.0
42 H24	2.6463  -5.7522  0.4504 H	1 RES1 0.0
43 H25	1.8564  -4.6792  -0.4391 H	1 RES1 0.0
44 C18	1.2405  -4.6885  1.5379 C.3	1 RES1 0.0
45 H26	1.6467  -4.9183  2.4116 H	1 RES1 0.0
46 H27	0.4946  -5.3178  1.3707 H	1 RES1 0.0
47 C19	0.7028  -3.2609  1.5847 C.3	1 RES1 0.0
48 H28	0.051  -3.1788  2.3256 H	1 RES1 0.0
49 H29	0.2314  -3.0587  0.7381 H	1 RES1 0.0
@<TRIPOS>BOND
1 1 2 1
1 1 16 1
1 1 33 1
1 2 3 ar
1 2 14 ar
1 3 4 1
1 3 8 ar
1 4 5 1
1 4 6 1
1 4 7 1
1 8 9 1
1 8 10 ar
1 10 11 1
1 10 12 ar
1 12 13 1
1 12 14 ar
1 14 15 1
1 16 17 1
1 16 18 1
1 16 30 1
1 18 19 1
1 18 20 1
1 18 21 1
1 21 22 1
1 21 23 1
1 21 24 1
1 24 25 1
1 24 26 1
1 24 27 1
1 27 28 1
1 27 29 1
1 27 30 1
1 30 31 1
1 30 32 1
1 33 34 1
1 33 35 1
1 33 47 1
1 35 36 1
1 35 37 1
1 35 38 1
1 38 39 1
1 38 40 1
1 38 41 1
1 41 42 1
1 41 43 1
1 41 44 1
1 44 45 1
1 44 46 1
1 44 47 1
1 47 48 1
1 47 49 1
@<TRIPOS>SUBSTRUCTURE
1 RES1 49

