@<TRIPOS>MOLECULE

38	39	1
SMALL
PartialCharges
****
Generated from molSimplify

@<TRIPOS>ATOM
1 P1	9.1938  5.0458  -4.5059 P.3	1 RES1 0.0
2 O1	9.943  9.1227  -5.8296 O.3	1 RES1 0.0
3 O2	9.2737  5.6755  -3.1241 O.3	1 RES1 0.0
4 H1	8.9064  5.1864  -2.5778 H	1 RES1 0.0
5 N1	7.8923  7.5354  -5.2057 N.pl3	1 RES1 0.0
6 N2	7.4408  5.917  -6.5497 N.2	1 RES1 0.0
7 C1	7.0383  8.019  -6.1753 C.2	1 RES1 0.0
8 H2	6.717  8.8885  -6.2368 H	1 RES1 0.0
9 C2	8.1361  6.2308  -5.4524 C.2	1 RES1 0.0
10 C3	11.6469  6.305  -4.485 C.3	1 RES1 0.0
11 H3	12.5154  6.4368  -4.8726 H	1 RES1 0.0
12 H4	11.743  5.9944  -3.5821 H	1 RES1 0.0
13 H5	11.1645  7.1355  -4.4881 H	1 RES1 0.0
14 C4	8.4552  8.4104  -4.1928 C.ar	1 RES1 0.0
15 C5	9.4891  9.2621  -4.5634 C.ar	1 RES1 0.0
16 C6	6.7531  7.0116  -7.0136 C.2	1 RES1 0.0
17 H6	6.2  7.0456  -7.7611 H	1 RES1 0.0
18 C7	8.3724  9.3724  -2.0087 C.ar	1 RES1 0.0
19 H7	8.0082  9.4135  -1.1535 H	1 RES1 0.0
20 C8	9.9588  10.1813  -3.6298 C.ar	1 RES1 0.0
21 H8	10.6508  10.7613  -3.8528 H	1 RES1 0.0
22 C9	10.8008  5.7128  -6.7552 C.3	1 RES1 0.0
23 H9	11.6898  5.8042  -7.1058 H	1 RES1 0.0
24 H10	10.3473  6.5567  -6.8059 H	1 RES1 0.0
25 H11	10.3193  5.0598  -7.2673 H	1 RES1 0.0
26 C10	9.3907  10.2291  -2.3655 C.ar	1 RES1 0.0
27 H12	9.7023  10.8497  -1.7488 H	1 RES1 0.0
28 C11	11.0745  9.9265  -6.2015 C.3	1 RES1 0.0
29 H13	11.3118  9.743  -7.1135 H	1 RES1 0.0
30 H14	11.8175  9.7179  -5.6308 H	1 RES1 0.0
31 H15	10.8518  10.8553  -6.1107 H	1 RES1 0.0
32 C12	7.89  8.4506  -2.9285 C.ar	1 RES1 0.0
33 H16	7.201  7.8695  -2.6978 H	1 RES1 0.0
34 C13	10.8752  5.2625  -5.3032 C.3	1 RES1 0.0
35 C14	11.6237  3.9288  -5.2217 C.3	1 RES1 0.0
36 H17	12.4887  4.0218  -5.6278 H	1 RES1 0.0
37 H18	11.1241  3.252  -5.6831 H	1 RES1 0.0
38 H19	11.7297  3.6774  -4.3004 H	1 RES1 0.0
@<TRIPOS>BOND
1 1 3 1
1 1 9 1
1 1 34 1
1 2 15 1
1 2 28 1
1 3 4 1
1 5 7 1
1 5 9 1
1 5 14 1
1 6 9 2
1 6 16 1
1 7 8 1
1 7 16 2
1 10 11 1
1 10 12 1
1 10 13 1
1 10 34 1
1 14 15 ar
1 14 32 ar
1 15 20 ar
1 16 17 1
1 18 19 1
1 18 26 ar
1 18 32 ar
1 20 21 1
1 20 26 ar
1 22 23 1
1 22 24 1
1 22 25 1
1 22 34 1
1 26 27 1
1 28 29 1
1 28 30 1
1 28 31 1
1 32 33 1
1 34 35 1
1 35 36 1
1 35 37 1
1 35 38 1
@<TRIPOS>SUBSTRUCTURE
1 RES1 38

