@<TRIPOS>MOLECULE

67	70	1
SMALL
PartialCharges
****
Generated from molSimplify

@<TRIPOS>ATOM
1 C1	9.5362  8.9685  9.6088 C.3	1 RES1 0.0
2 H1	9.4838  8.2779  10.301 H	1 RES1 0.0
3 C2	9.3904  8.2182  8.254 C.3	1 RES1 0.0
4 H2	8.4978  7.8433  8.1826 H	1 RES1 0.0
5 H3	9.5176  8.8396  7.5214 H	1 RES1 0.0
6 C3	10.4269  7.0959  8.1664 C.3	1 RES1 0.0
7 H4	10.2507  6.4414  8.8587 H	1 RES1 0.0
8 H5	10.3479  6.6532  7.3072 H	1 RES1 0.0
9 C4	11.8329  7.6243  8.3267 C.3	1 RES1 0.0
10 H6	12.4561  6.8819  8.3334 H	1 RES1 0.0
11 H7	12.0506  8.1919  7.5712 H	1 RES1 0.0
12 C5	11.983  8.4103  9.5966 C.3	1 RES1 0.0
13 H8	12.8741  8.7917  9.6317 H	1 RES1 0.0
14 H9	11.8837  7.8129  10.3548 H	1 RES1 0.0
15 C6	10.9446  9.5378  9.7003 C.3	1 RES1 0.0
16 H10	11.052  10.0035  10.5447 H	1 RES1 0.0
17 H11	11.0839  10.1761  8.9839 H	1 RES1 0.0
18 C7	8.4499  11.7662  9.2681 C.3	1 RES1 0.0
19 H12	7.5883  12.2335  9.2532 H	1 RES1 0.0
20 C8	8.9351  11.7865  7.8001 C.3	1 RES1 0.0
21 H13	9.8216  11.3975  7.7463 H	1 RES1 0.0
22 H14	8.3379  11.2521  7.2534 H	1 RES1 0.0
23 C9	8.9712  13.2065  7.2682 C.3	1 RES1 0.0
24 H15	8.0708  13.5649  7.2466 H	1 RES1 0.0
25 H16	9.3143  13.2025  6.3619 H	1 RES1 0.0
26 C10	9.8555  14.1003  8.1435 C.3	1 RES1 0.0
27 H17	10.7789  13.8104  8.0708 H	1 RES1 0.0
28 H18	9.8022  15.0155  7.8271 H	1 RES1 0.0
29 C11	9.4197  14.042  9.6007 C.3	1 RES1 0.0
30 H19	10.0409  14.5606  10.1353 H	1 RES1 0.0
31 H20	8.545  14.4522  9.6842 H	1 RES1 0.0
32 C12	9.3552  12.6441  10.1488 C.3	1 RES1 0.0
33 H21	9.0078  12.6636  11.0538 H	1 RES1 0.0
34 H22	10.2476  12.2647  10.1757 H	1 RES1 0.0
35 C13	7.9024  10.2538  11.7204 C.ar	1 RES1 0.0
36 C14	9.0311  10.1312  12.5217 C.ar	1 RES1 0.0
37 H23	9.8526  9.9521  12.1231 H	1 RES1 0.0
38 C15	8.9689  10.2689  13.8859 C.ar	1 RES1 0.0
39 H24	9.7404  10.1722  14.3963 H	1 RES1 0.0
40 C16	7.7865  10.5461  14.5 C.ar	1 RES1 0.0
41 H25	7.7459  10.6545  15.4239 H	1 RES1 0.0
42 C17	6.6522  10.6637  13.7324 C.ar	1 RES1 0.0
43 H26	5.84  10.8389  14.1499 H	1 RES1 0.0
44 C18	6.6862  10.525  12.3466 C.ar	1 RES1 0.0
45 C19	5.374  10.6658  11.6504 C.ar	1 RES1 0.0
46 C20	5.0104  11.8492  10.9851 C.ar	1 RES1 0.0
47 C21	3.7544  11.9776  10.3548 C.ar	1 RES1 0.0
48 C22	2.8709  10.9239  10.4451 C.ar	1 RES1 0.0
49 H27	2.0425  10.996  10.0276 H	1 RES1 0.0
50 C23	3.1762  9.758  11.1359 C.ar	1 RES1 0.0
51 H28	2.5594  9.0637  11.1898 H	1 RES1 0.0
52 C24	4.42  9.6452  11.746 C.ar	1 RES1 0.0
53 C25	5.9332  13.7518  12.0221 C.3	1 RES1 0.0
54 H29	6.2521  14.6128  11.742 H	1 RES1 0.0
55 H30	6.5114  13.4032  12.7049 H	1 RES1 0.0
56 H31	5.0425  13.8379  12.3695 H	1 RES1 0.0
57 C26	3.9688  7.4052  12.5244 C.3	1 RES1 0.0
58 H32	3.796  7.0896  11.6342 H	1 RES1 0.0
59 H33	3.1396  7.6379  12.9486 H	1 RES1 0.0
60 H34	4.4047  6.715  13.0294 H	1 RES1 0.0
61 O1	5.925  12.8575  10.8989 O.3	1 RES1 0.0
62 O2	4.8156  8.5636  12.4651 O.3	1 RES1 0.0
63 O3	1.8954  13.2126  9.0539 O.3	1 RES1 0.0
64 O4	3.5567  14.5684  10.2067 O.2	1 RES1 0.0
65 O5	4.1634  13.3118  8.254 O.2	1 RES1 0.0
66 P1	8.0547  10.0791  9.8874 P.3	1 RES1 0.0
67 S1	3.3023  13.4  9.4061 S.o2	1 RES1 0.0
@<TRIPOS>BOND
1 1 2 1
1 1 3 1
1 1 15 1
1 1 66 1
1 3 4 1
1 3 5 1
1 3 6 1
1 6 7 1
1 6 8 1
1 6 9 1
1 9 10 1
1 9 11 1
1 9 12 1
1 12 13 1
1 12 14 1
1 12 15 1
1 15 16 1
1 15 17 1
1 18 19 1
1 18 20 1
1 18 32 1
1 18 66 1
1 20 21 1
1 20 22 1
1 20 23 1
1 23 24 1
1 23 25 1
1 23 26 1
1 26 27 1
1 26 28 1
1 26 29 1
1 29 30 1
1 29 31 1
1 29 32 1
1 32 33 1
1 32 34 1
1 35 36 ar
1 35 44 ar
1 35 66 1
1 36 37 1
1 36 38 ar
1 38 39 1
1 38 40 ar
1 40 41 1
1 40 42 ar
1 42 43 1
1 42 44 ar
1 44 45 1
1 45 46 ar
1 45 52 ar
1 46 47 ar
1 46 61 1
1 47 48 ar
1 47 67 1
1 48 49 1
1 48 50 ar
1 50 51 1
1 50 52 ar
1 52 62 1
1 53 54 1
1 53 55 1
1 53 56 1
1 53 61 1
1 57 58 1
1 57 59 1
1 57 60 1
1 57 62 1
1 63 67 1
1 64 67 2
1 65 67 2
@<TRIPOS>SUBSTRUCTURE
1 RES1 67

