@<TRIPOS>MOLECULE

36	37	1
SMALL
PartialCharges
****
Generated from molSimplify

@<TRIPOS>ATOM
1 P1	3.4747  1.2347  5.9995 P.3	1 RES1 0.0
2 C1	3.8825  2.4007  4.6511 C.3	1 RES1 0.0
3 H1	3.0725  2.5582  4.1044 H	1 RES1 0.0
4 H2	4.1545  3.2678  5.045 H	1 RES1 0.0
5 C2	5.0032  1.8927  3.7466 C.3	1 RES1 0.0
6 H3	5.8433  1.8644  4.2511 H	1 RES1 0.0
7 H4	5.1024  2.4947  2.9798 H	1 RES1 0.0
8 H5	4.783  0.9925  3.428 H	1 RES1 0.0
9 C3	5.0638  0.9982  6.8751 C.3	1 RES1 0.0
10 H6	4.9111  0.4008  7.6499 H	1 RES1 0.0
11 H7	5.6944  0.5395  6.2651 H	1 RES1 0.0
12 C4	5.7194  2.2811  7.3746 C.3	1 RES1 0.0
13 H8	5.8864  2.8782  6.6168 H	1 RES1 0.0
14 H9	6.5689  2.0643  7.8137 H	1 RES1 0.0
15 H10	5.1245  2.7237  8.0147 H	1 RES1 0.0
16 C5	2.4384  2.2322  7.1424 C.3	1 RES1 0.0
17 C6	1.954  3.4783  6.7173 C.2	1 RES1 0.0
18 H11	2.1093  3.7547  5.8219 H	1 RES1 0.0
19 C7	1.2532  4.3177  7.5746 C.2	1 RES1 0.0
20 H12	0.9463  5.164  7.27 H	1 RES1 0.0
21 C8	1.0036  3.9162  8.874 C.2	1 RES1 0.0
22 H13	0.5275  4.4848  9.4679 H	1 RES1 0.0
23 C9	1.4537  2.6788  9.3041 C.2	1 RES1 0.0
24 H14	1.2736  2.4066  10.1966 H	1 RES1 0.0
25 C10	2.1637  1.8185  8.464 C.2	1 RES1 0.0
26 C11	2.5719  0.5073  9.0308 C.2	1 RES1 0.0
27 C12	3.2917  0.4645  10.2378 C.2	1 RES1 0.0
28 H15	3.5729  1.2744  10.6468 H	1 RES1 0.0
29 C13	3.5935  -0.7476  10.8357 C.2	1 RES1 0.0
30 H16	4.0801  -0.7672  11.6518 H	1 RES1 0.0
31 C14	3.1868  -1.9305  10.2448 C.2	1 RES1 0.0
32 H17	3.392  -2.7608  10.6578 H	1 RES1 0.0
33 C15	2.4809  -1.9081  9.0499 C.2	1 RES1 0.0
34 H18	2.2103  -2.7228  8.6419 H	1 RES1 0.0
35 C16	2.1708  -0.694  8.4509 C.2	1 RES1 0.0
36 H19	1.6802  -0.6831  7.6369 H	1 RES1 0.0
@<TRIPOS>BOND
1 1 2 1
1 1 9 1
1 1 16 1
1 2 3 1
1 2 4 1
1 2 5 1
1 5 6 1
1 5 7 1
1 5 8 1
1 9 10 1
1 9 11 1
1 9 12 1
1 12 13 1
1 12 14 1
1 12 15 1
1 16 17 1
1 16 25 1
1 17 18 1
1 17 19 un
1 19 20 1
1 19 21 un
1 21 22 1
1 21 23 un
1 23 24 1
1 23 25 un
1 25 26 un
1 26 27 un
1 26 35 un
1 27 28 1
1 27 29 un
1 29 30 1
1 29 31 un
1 31 32 1
1 31 33 un
1 33 34 1
1 33 35 un
1 35 36 1
@<TRIPOS>SUBSTRUCTURE
1 RES1 36

