@<TRIPOS>MOLECULE

149	159	1
SMALL
PartialCharges
****
Generated from molSimplify

@<TRIPOS>ATOM
1 P1	-13.2364  1.2994  15.6508 P.3	1 RES1 0.0
2 O1	-11.5292  2.2459  18.5439 O.3	1 RES1 0.0
3 O2	-10.5876  3.6612  20.1779 O.3	1 RES1 0.0
4 O3	-6.1998  5.2147  21.0878 O.3	1 RES1 0.0
5 O4	-4.0372  4.8656  20.1822 O.3	1 RES1 0.0
6 O5	-2.1672  2.275  16.6594 O.3	1 RES1 0.0
7 O6	-3.0915  0.9149  14.9681 O.3	1 RES1 0.0
8 O7	-7.5363  -0.3156  13.8718 O.3	1 RES1 0.0
9 O8	-9.7048  -0.0495  14.7881 O.3	1 RES1 0.0
10 C1	-10.5833  1.1215  16.6674 C.ar	1 RES1 0.0
11 C2	-9.7163  0.1615  16.1707 C.ar	1 RES1 0.0
12 C3	-8.9286  -0.6197  17.0037 C.ar	1 RES1 0.0
13 C4	-8.9883  -0.384  18.3686 C.ar	1 RES1 0.0
14 H1	-8.4342  -0.896  18.946 H	1 RES1 0.0
15 C5	-9.8288  0.5702  18.9206 C.ar	1 RES1 0.0
16 C6	-10.6098  1.3222  18.0483 C.ar	1 RES1 0.0
17 C7	-9.8463  0.8989  20.4078 C.3	1 RES1 0.0
18 H2	-10.753  1.2611  20.6165 H	1 RES1 0.0
19 C8	-11.0516  3.5405  18.8502 C.3	1 RES1 0.0
20 H3	-10.3134  3.766  18.231 H	1 RES1 0.0
21 H4	-11.7788  4.1951  18.7032 H	1 RES1 0.0
22 C9	-8.3615  4.3973  20.5757 C.ar	1 RES1 0.0
23 H5	-8.6458  5.2947  20.4517 H	1 RES1 0.0
24 C10	-9.2506  3.3572  20.431 C.ar	1 RES1 0.0
25 C11	-8.8565  2.0292  20.6221 C.ar	1 RES1 0.0
26 C12	-7.5111  1.8037  20.962 C.ar	1 RES1 0.0
27 H6	-7.2205  0.9077  21.0798 H	1 RES1 0.0
28 C13	-6.596  2.8103  21.1315 C.ar	1 RES1 0.0
29 C14	-7.0448  4.1151  20.9058 C.ar	1 RES1 0.0
30 C15	-5.1543  2.563  21.503 C.3	1 RES1 0.0
31 H7	-4.8336  3.3849  21.9752 H	1 RES1 0.0
32 C16	-5.2873  5.5057  20.0285 C.3	1 RES1 0.0
33 H8	-5.1466  6.4846  19.9884 H	1 RES1 0.0
34 H9	-5.6917  5.222  19.1709 H	1 RES1 0.0
35 C17	-3.1563  3.5405  18.4203 C.ar	1 RES1 0.0
36 H10	-2.8105  4.3333  18.0283 H	1 RES1 0.0
37 C18	-3.868  3.6001  19.5919 C.ar	1 RES1 0.0
38 C19	-4.3574  2.4626  20.2156 C.ar	1 RES1 0.0
39 C20	-4.1323  1.2495  19.5785 C.ar	1 RES1 0.0
40 H11	-4.4772  0.4597  19.9795 H	1 RES1 0.0
41 C21	-3.4272  1.1317  18.3824 C.ar	1 RES1 0.0
42 C22	-2.9498  2.3215  17.8189 C.ar	1 RES1 0.0
43 C23	-3.2668  -0.1876  17.6363 C.3	1 RES1 0.0
44 H12	-2.4125  -0.1324  17.1195 H	1 RES1 0.0
45 C24	-2.8497  2.2401  15.4334 C.3	1 RES1 0.0
46 H13	-2.321  2.7288  14.7563 H	1 RES1 0.0
47 H14	-3.7166  2.7085  15.5336 H	1 RES1 0.0
48 C25	-5.339  0.3258  14.4779 C.ar	1 RES1 0.0
49 H15	-5.2472  0.7506  13.6315 H	1 RES1 0.0
50 C26	-4.2881  0.32  15.38 C.ar	1 RES1 0.0
51 C27	-4.3832  -0.2807  16.6384 C.ar	1 RES1 0.0
52 C28	-5.595  -0.8888  16.9302 C.ar	1 RES1 0.0
53 H16	-5.6956  -1.296  17.7811 H	1 RES1 0.0
54 C29	-6.671  -0.9353  16.0482 C.ar	1 RES1 0.0
55 C30	-6.5113  -0.2909  14.8276 C.ar	1 RES1 0.0
56 C31	-7.9786  -1.6437  16.4068 C.3	1 RES1 0.0
57 H17	-8.3854  -1.9535  15.547 H	1 RES1 0.0
58 C32	-8.6284  0.5557  14.0836 C.3	1 RES1 0.0
59 H18	-8.9574  0.8742  13.2061 H	1 RES1 0.0
60 H19	-8.3144  1.3455  14.5915 H	1 RES1 0.0
61 C33	-9.6217  -0.3127  21.3226 C.3	1 RES1 0.0
62 H20	-8.7729  -0.7535  21.0664 H	1 RES1 0.0
63 H21	-9.5264  0.0058  22.2558 H	1 RES1 0.0
64 C34	-10.7223  -1.3251  21.2736 C.3	1 RES1 0.0
65 H22	-10.8171  -1.6553  20.3448 H	1 RES1 0.0
66 H23	-11.5735  -0.8873  21.5275 H	1 RES1 0.0
67 C35	-10.484  -2.5048  22.1957 C.3	1 RES1 0.0
68 H24	-9.6386  -2.9456  21.924 H	1 RES1 0.0
69 H25	-10.359  -2.163  23.1156 H	1 RES1 0.0
70 C36	-11.5572  -3.5216  22.2135 C.3	1 RES1 0.0
71 H26	-11.7151  -3.8387  21.2892 H	1 RES1 0.0
72 H27	-12.3929  -3.0983  22.532 H	1 RES1 0.0
73 C37	-11.2415  -4.7187  23.0978 C.3	1 RES1 0.0
74 H28	-11.9955  -5.3486  23.0733 H	1 RES1 0.0
75 H29	-11.1017  -4.4162  24.0177 H	1 RES1 0.0
76 H30	-10.4331  -5.1624  22.7704 H	1 RES1 0.0
77 C38	-4.9465  1.3993  22.4608 C.3	1 RES1 0.0
78 H31	-5.5819  1.4924  23.2136 H	1 RES1 0.0
79 H32	-5.1651  0.5571  21.9886 H	1 RES1 0.0
80 C39	-3.5639  1.2902  23.0176 C.3	1 RES1 0.0
81 H33	-3.3414  2.1383  23.4764 H	1 RES1 0.0
82 H34	-2.9295  1.1797  22.267 H	1 RES1 0.0
83 C40	-3.3587  0.1455  23.991 C.3	1 RES1 0.0
84 H35	-4.0216  0.288  24.7171 H	1 RES1 0.0
85 H36	-3.6487  -0.6706  23.5121 H	1 RES1 0.0
86 C41	-2.1857  -0.1847  24.6168 C.3	1 RES1 0.0
87 H37	-1.8788  0.6022  25.1314 H	1 RES1 0.0
88 H38	-1.5068  -0.3636  23.9175 H	1 RES1 0.0
89 C42	-2.2177  -1.3819  25.5479 C.3	1 RES1 0.0
90 H39	-1.3415  -1.507  25.9577 H	1 RES1 0.0
91 H40	-2.47  -2.1819  25.0512 H	1 RES1 0.0
92 H41	-2.8863  -1.2175  26.2606 H	1 RES1 0.0
93 C43	-3.1645  -1.3964  18.5406 C.3	1 RES1 0.0
94 H42	-3.0771  -2.2023  17.9726 H	1 RES1 0.0
95 H43	-4.012  -1.4808  19.044 H	1 RES1 0.0
96 C44	-2.0199  -1.3906  19.5362 C.3	1 RES1 0.0
97 H44	-2.1206  -0.6138  20.1398 H	1 RES1 0.0
98 H45	-1.1681  -1.2873  19.0484 H	1 RES1 0.0
99 C45	-1.9668  -2.6663  20.3693 C.3	1 RES1 0.0
100 H46	-2.8577  -2.8016  20.7858 H	1 RES1 0.0
101 H47	-1.8066  -3.4285  19.7567 H	1 RES1 0.0
102 C46	-0.9312  -2.7099  21.4518 C.3	1 RES1 0.0
103 H48	-1.0553  -1.9332  22.0531 H	1 RES1 0.0
104 H49	-0.0306  -2.6357  21.0441 H	1 RES1 0.0
105 C47	-0.9984  -3.9987  22.2781 C.3	1 RES1 0.0
106 H50	-0.3006  -3.9827  22.9664 H	1 RES1 0.0
107 H51	-0.8597  -4.7711  21.6901 H	1 RES1 0.0
108 H52	-1.8772  -4.0656  22.7058 H	1 RES1 0.0
109 C48	-7.7838  -2.8685  17.2665 C.3	1 RES1 0.0
110 H53	-7.4202  -2.5892  18.1441 H	1 RES1 0.0
111 H54	-7.1195  -3.4605  16.8367 H	1 RES1 0.0
112 C49	-9.0611  -3.651  17.4982 C.3	1 RES1 0.0
113 H55	-9.4308  -3.9478  16.6295 H	1 RES1 0.0
114 H56	-9.7343  -3.0648  17.9303 H	1 RES1 0.0
115 C50	-8.8057  -4.8889  18.4003 C.3	1 RES1 0.0
116 H57	-8.1319  -5.4708  17.9615 H	1 RES1 0.0
117 H58	-8.4204  -4.5849  19.26 H	1 RES1 0.0
118 C51	-10.0273  -5.6889  18.6742 C.3	1 RES1 0.0
119 H59	-10.4535  -5.958  17.8212 H	1 RES1 0.0
120 H60	-10.6799  -5.1464  19.1888 H	1 RES1 0.0
121 C52	-9.6369  -6.9355  19.4783 C.3	1 RES1 0.0
122 H61	-10.4406  -7.4665  19.6654 H	1 RES1 0.0
123 H62	-9.2247  -6.6621  20.3225 H	1 RES1 0.0
124 H63	-9.0023  -7.4723  18.9593 H	1 RES1 0.0
125 C53	-11.4812  1.9143  15.7675 C.3	1 RES1 0.0
126 H64	-11.0897  1.9172  14.8588 H	1 RES1 0.0
127 H65	-11.4954  2.851  16.086 H	1 RES1 0.0
128 C54	-13.5621  1.2539  13.8654 C.ar	1 RES1 0.0
129 C55	-14.7785  1.6859  13.3998 C.ar	1 RES1 0.0
130 H66	-15.4254  2.019  14.0124 H	1 RES1 0.0
131 C56	-15.0731  1.6452  12.0523 C.ar	1 RES1 0.0
132 H67	-15.9198  1.9404  11.7427 H	1 RES1 0.0
133 C57	-14.1444  1.1797  11.1613 C.ar	1 RES1 0.0
134 H68	-14.3417  1.1666  10.2325 H	1 RES1 0.0
135 C58	-12.9301  0.7331  11.6157 C.ar	1 RES1 0.0
136 H69	-12.2952  0.3869  10.9965 H	1 RES1 0.0
137 C59	-12.6194  0.7811  12.9655 C.ar	1 RES1 0.0
138 H70	-11.7654  0.4931  13.2706 H	1 RES1 0.0
139 C60	-13.0771  -0.432  16.1751 C.ar	1 RES1 0.0
140 C61	-12.9486  -1.4953  15.273 C.ar	1 RES1 0.0
141 H71	-12.9962  -1.3237  14.3398 H	1 RES1 0.0
142 C62	-12.7533  -2.7826  15.7118 C.ar	1 RES1 0.0
143 H72	-12.6631  -3.4852  15.0793 H	1 RES1 0.0
144 C63	-12.6854  -3.059  17.0238 C.ar	1 RES1 0.0
145 H73	-12.5494  -3.9536  17.3133 H	1 RES1 0.0
146 C64	-12.8216  -2.035  17.9637 C.ar	1 RES1 0.0
147 H74	-12.7859  -2.2343  18.8925 H	1 RES1 0.0
148 C65	-13.0086  -0.7055  17.5338 C.ar	1 RES1 0.0
149 H75	-13.0845  -0.0029  18.1686 H	1 RES1 0.0
@<TRIPOS>BOND
1 1 125 1
1 1 128 1
1 1 139 1
1 2 16 1
1 2 19 1
1 3 19 1
1 3 24 1
1 4 29 1
1 4 32 1
1 5 32 1
1 5 37 1
1 6 42 1
1 6 45 1
1 7 45 1
1 7 50 1
1 8 55 1
1 8 58 1
1 9 11 1
1 9 58 1
1 10 11 ar
1 10 16 ar
1 10 125 1
1 11 12 ar
1 12 13 ar
1 12 56 1
1 13 14 1
1 13 15 ar
1 15 16 ar
1 15 17 1
1 17 18 1
1 17 25 1
1 17 61 1
1 19 20 1
1 19 21 1
1 22 23 1
1 22 24 ar
1 22 29 ar
1 24 25 ar
1 25 26 ar
1 26 27 1
1 26 28 ar
1 28 29 ar
1 28 30 1
1 30 31 1
1 30 38 1
1 30 77 1
1 32 33 1
1 32 34 1
1 35 36 1
1 35 37 ar
1 35 42 ar
1 37 38 ar
1 38 39 ar
1 39 40 1
1 39 41 ar
1 41 42 ar
1 41 43 1
1 43 44 1
1 43 51 1
1 43 93 1
1 45 46 1
1 45 47 1
1 48 49 1
1 48 50 ar
1 48 55 ar
1 50 51 ar
1 51 52 ar
1 52 53 1
1 52 54 ar
1 54 55 ar
1 54 56 1
1 56 57 1
1 56 109 1
1 58 59 1
1 58 60 1
1 61 62 1
1 61 63 1
1 61 64 1
1 64 65 1
1 64 66 1
1 64 67 1
1 67 68 1
1 67 69 1
1 67 70 1
1 70 71 1
1 70 72 1
1 70 73 1
1 73 74 1
1 73 75 1
1 73 76 1
1 77 78 1
1 77 79 1
1 77 80 1
1 80 81 1
1 80 82 1
1 80 83 1
1 83 84 1
1 83 85 1
1 83 86 1
1 86 87 1
1 86 88 1
1 86 89 1
1 89 90 1
1 89 91 1
1 89 92 1
1 93 94 1
1 93 95 1
1 93 96 1
1 96 97 1
1 96 98 1
1 96 99 1
1 99 100 1
1 99 101 1
1 99 102 1
1 102 103 1
1 102 104 1
1 102 105 1
1 105 106 1
1 105 107 1
1 105 108 1
1 109 110 1
1 109 111 1
1 109 112 1
1 112 113 1
1 112 114 1
1 112 115 1
1 115 116 1
1 115 117 1
1 115 118 1
1 118 119 1
1 118 120 1
1 118 121 1
1 121 122 1
1 121 123 1
1 121 124 1
1 125 126 1
1 125 127 1
1 128 129 ar
1 128 137 ar
1 129 130 1
1 129 131 ar
1 131 132 1
1 131 133 ar
1 133 134 1
1 133 135 ar
1 135 136 1
1 135 137 ar
1 137 138 1
1 139 140 ar
1 139 148 ar
1 140 141 1
1 140 142 ar
1 142 143 1
1 142 144 ar
1 144 145 1
1 144 146 ar
1 146 147 1
1 146 148 ar
1 148 149 1
@<TRIPOS>SUBSTRUCTURE
1 RES1 149

