@<TRIPOS>MOLECULE

30	31	1
SMALL
PartialCharges
****
Generated from molSimplify

@<TRIPOS>ATOM
1 S1	16.0734  -0.9492  3.0891 S.3	1 RES1 0.0
2 C1	16.8732  0.112  5.2908 C.2	1 RES1 0.0
3 H1	17.0948  0.7519  5.9576 H	1 RES1 0.0
4 P1	16.3498  2.1841  3.4141 P.3	1 RES1 0.0
5 O1	16.3442  3.0002  4.7982 O.3	1 RES1 0.0
6 H2	15.7156  3.3703  4.8865 H	1 RES1 0.0
7 C2	17.9939  2.6675  2.7298 C.3	1 RES1 0.0
8 C3	17.8974  4.15  2.3643 C.3	1 RES1 0.0
9 H3	18.7526  4.4518  1.9948 H	1 RES1 0.0
10 H4	17.6863  4.6705  3.1662 H	1 RES1 0.0
11 H5	17.1901  4.2758  1.6976 H	1 RES1 0.0
12 C4	19.0818  2.4979  3.7901 C.3	1 RES1 0.0
13 H6	19.9492  2.7603  3.4152 H	1 RES1 0.0
14 H7	19.1194  1.5604  4.0739 H	1 RES1 0.0
15 H8	18.8768  3.0642  4.5639 H	1 RES1 0.0
16 C5	18.3248  1.8302  1.4941 C.3	1 RES1 0.0
17 H9	19.1966  2.1001  1.1406 H	1 RES1 0.0
18 H10	17.6366  1.9721  0.8113 H	1 RES1 0.0
19 H11	18.3495  0.882  1.7404 H	1 RES1 0.0
20 C6	16.514  0.4981  4.019 C.2	1 RES1 0.0
21 C7	16.8973  -1.298  5.5707 C.ar	1 RES1 0.0
22 C8	16.4605  -1.891  4.3845 C.ar	1 RES1 0.0
23 C9	16.3294  -3.3063  4.3176 C.ar	1 RES1 0.0
24 H12	16.0409  -3.7298  3.5183 H	1 RES1 0.0
25 C10	16.6311  -4.0465  5.4368 C.ar	1 RES1 0.0
26 H13	16.5486  -4.9926  5.406 H	1 RES1 0.0
27 C11	17.0475  -3.4386  6.6055 C.ar	1 RES1 0.0
28 H14	17.2502  -3.9719  7.366 H	1 RES1 0.0
29 C12	17.1738  -2.0894  6.6832 C.ar	1 RES1 0.0
30 H15	17.4473  -1.6841  7.4985 H	1 RES1 0.0
@<TRIPOS>BOND
1 1 20 1
1 1 22 1
1 2 3 1
1 2 20 2
1 2 21 1
1 4 5 1
1 4 7 1
1 4 20 1
1 5 6 1
1 7 8 1
1 7 12 1
1 7 16 1
1 8 9 1
1 8 10 1
1 8 11 1
1 12 13 1
1 12 14 1
1 12 15 1
1 16 17 1
1 16 18 1
1 16 19 1
1 21 22 ar
1 21 29 ar
1 22 23 ar
1 23 24 1
1 23 25 ar
1 25 26 1
1 25 27 ar
1 27 28 1
1 27 29 ar
1 29 30 1
@<TRIPOS>SUBSTRUCTURE
1 RES1 30

