@<TRIPOS>MOLECULE

40	42	1
SMALL
PartialCharges
****
Generated from molSimplify

@<TRIPOS>ATOM
1 P1	1.3318  8.9899  7.3002 P.3	1 RES1 0.0
2 C1	-0.306  9.5553  6.7195 C.ar	1 RES1 0.0
3 C2	-0.3258  10.5719  5.762 C.ar	1 RES1 0.0
4 H1	0.4931  10.9214  5.4308 H	1 RES1 0.0
5 C3	-1.5289  11.0767  5.2894 C.ar	1 RES1 0.0
6 H2	-1.5313  11.7644  4.6339 H	1 RES1 0.0
7 C4	-2.7179  9.5837  6.7453 C.ar	1 RES1 0.0
8 H3	-3.5387  9.2468  7.0848 H	1 RES1 0.0
9 C5	-2.7291  10.5754  5.7759 C.ar	1 RES1 0.0
10 H4	-3.5545  10.9106  5.446 H	1 RES1 0.0
11 C6	-1.5179  9.0809  7.2221 C.ar	1 RES1 0.0
12 H5	-1.5206  8.4099  7.8945 H	1 RES1 0.0
13 C7	1.0169  7.4299  8.2017 C.ar	1 RES1 0.0
14 C8	1.6156  7.196  9.4338 C.ar	1 RES1 0.0
15 H6	2.1937  7.8503  9.8082 H	1 RES1 0.0
16 C9	1.3761  6.0135  10.1225 C.ar	1 RES1 0.0
17 H7	1.7806  5.8695  10.97 H	1 RES1 0.0
18 C10	0.552  5.0463  9.5807 C.ar	1 RES1 0.0
19 H8	0.3779  4.2449  10.0603 H	1 RES1 0.0
20 C11	-0.019  5.249  8.3366 C.ar	1 RES1 0.0
21 H9	-0.5693  4.5757  7.9542 H	1 RES1 0.0
22 C12	0.2073  6.4286  7.645 C.ar	1 RES1 0.0
23 H10	-0.1875  6.5597  6.7909 H	1 RES1 0.0
24 C13	1.7136  10.2282  8.6242 C.3	1 RES1 0.0
25 H11	2.5537  9.9264  9.0751 H	1 RES1 0.0
26 C14	1.9857  11.6271  8.0535 C.3	1 RES1 0.0
27 H12	2.672  11.5689  7.3426 H	1 RES1 0.0
28 H13	1.1563  11.9901  7.6529 H	1 RES1 0.0
29 C15	2.4715  12.5594  9.1613 C.3	1 RES1 0.0
30 H14	2.6104  13.4656  8.7877 H	1 RES1 0.0
31 H15	3.3415  12.2341  9.5037 H	1 RES1 0.0
32 C16	1.473  12.6376  10.3153 C.3	1 RES1 0.0
33 H16	1.865  13.1719  11.0507 H	1 RES1 0.0
34 H17	0.6528  13.0984  10.0071 H	1 RES1 0.0
35 C17	1.1061  11.2536  10.8391 C.3	1 RES1 0.0
36 H18	0.3899  11.3393  11.5172 H	1 RES1 0.0
37 H19	1.8959  10.8497  11.2786 H	1 RES1 0.0
38 C18	0.6287  10.3344  9.7124 C.3	1 RES1 0.0
39 H20	-0.2044  10.6959  9.3182 H	1 RES1 0.0
40 H21	0.433  9.435  10.0767 H	1 RES1 0.0
@<TRIPOS>BOND
1 1 2 1
1 1 13 1
1 1 24 1
1 2 3 ar
1 2 11 ar
1 3 4 1
1 3 5 ar
1 5 6 1
1 5 9 ar
1 7 8 1
1 7 9 ar
1 7 11 ar
1 9 10 1
1 11 12 1
1 13 14 ar
1 13 22 ar
1 14 15 1
1 14 16 ar
1 16 17 1
1 16 18 ar
1 18 19 1
1 18 20 ar
1 20 21 1
1 20 22 ar
1 22 23 1
1 24 25 1
1 24 26 1
1 24 38 1
1 26 27 1
1 26 28 1
1 26 29 1
1 29 30 1
1 29 31 1
1 29 32 1
1 32 33 1
1 32 34 1
1 32 35 1
1 35 36 1
1 35 37 1
1 35 38 1
1 38 39 1
1 38 40 1
@<TRIPOS>SUBSTRUCTURE
1 RES1 40

