@<TRIPOS>MOLECULE

66	68	1
SMALL
PartialCharges
****
Generated from molSimplify

@<TRIPOS>ATOM
1 P1	-1.1464  -1.0152  1.7645 P.3	1 RES1 0.0
2 O1	-3.785  2.1424  3.9266 O.3	1 RES1 0.0
3 C1	-2.9276  -1.2321  1.3948 C.ar	1 RES1 0.0
4 C2	-0.8516  -0.0159  3.2791 C.ar	1 RES1 0.0
5 C3	0.4736  -0.0161  3.7596 C.ar	1 RES1 0.0
6 O2	2.2627  -1.5112  4.1037 O.3	1 RES1 0.0
7 C4	-3.4871  -0.6733  0.2556 C.ar	1 RES1 0.0
8 H1	-2.9705  -0.1384  -0.3033 H	1 RES1 0.0
9 C5	-0.7963  -2.7403  2.233 C.ar	1 RES1 0.0
10 C6	-3.2104  0.9637  3.3995 C.3	1 RES1 0.0
11 H2	-3.2116  1.0052  2.4307 H	1 RES1 0.0
12 H3	-3.7363  0.1953  3.671 H	1 RES1 0.0
13 C7	-1.4247  1.568  5.0022 C.ar	1 RES1 0.0
14 H4	-2.0579  2.0979  5.427 H	1 RES1 0.0
15 C8	-0.1331  1.5422  5.4815 C.ar	1 RES1 0.0
16 H5	0.1011  2.0531  6.2232 H	1 RES1 0.0
17 C9	1.6108  -0.7571  3.1008 C.3	1 RES1 0.0
18 H6	1.272  -1.343  2.4068 H	1 RES1 0.0
19 H7	2.2299  -0.1282  2.6976 H	1 RES1 0.0
20 C10	-5.0378  2.5492  3.3246 C.3	1 RES1 0.0
21 C11	0.807  0.7659  4.8534 C.ar	1 RES1 0.0
22 H8	1.6828  0.763  5.1657 H	1 RES1 0.0
23 C12	-1.8019  0.8121  3.897 C.ar	1 RES1 0.0
24 C13	-0.6546  -3.1651  3.5461 C.ar	1 RES1 0.0
25 H9	-0.5971  -2.5435  4.2366 H	1 RES1 0.0
26 C14	-0.8441  -3.6822  1.2085 C.ar	1 RES1 0.0
27 H10	-0.9316  -3.4001  0.326 H	1 RES1 0.0
28 C15	-3.7168  -2.0625  2.1944 C.ar	1 RES1 0.0
29 H11	-3.345  -2.4641  2.9452 H	1 RES1 0.0
30 C16	-0.5989  -4.527  3.8255 C.ar	1 RES1 0.0
31 H12	-0.5296  -4.8204  4.7046 H	1 RES1 0.0
32 C17	-5.0358  -2.2891  1.8877 C.ar	1 RES1 0.0
33 H13	-5.5484  -2.8345  2.4398 H	1 RES1 0.0
34 C18	-0.7606  -5.0304  1.4936 C.ar	1 RES1 0.0
35 H14	-0.7842  -5.6567  0.8064 H	1 RES1 0.0
36 C19	-0.6465  -5.4443  2.7941 C.ar	1 RES1 0.0
37 H15	-0.596  -6.3526  2.9872 H	1 RES1 0.0
38 C20	-4.8236  -0.9177  -0.05 C.ar	1 RES1 0.0
39 H16	-5.197  -0.5331  -0.8098 H	1 RES1 0.0
40 C21	-5.5992  -1.7194  0.761 C.ar	1 RES1 0.0
41 H17	-6.493  -1.8761  0.5566 H	1 RES1 0.0
42 C22	3.5303  -2.108  3.7403 C.3	1 RES1 0.0
43 C23	-4.842  2.9586  1.8809 C.3	1 RES1 0.0
44 H18	-4.1822  3.6545  1.8321 H	1 RES1 0.0
45 H19	-5.6721  3.278  1.5209 H	1 RES1 0.0
46 H20	-4.5457  2.1996  1.3744 H	1 RES1 0.0
47 C24	-6.0809  1.4549  3.4529 C.3	1 RES1 0.0
48 H21	-6.1867  1.2148  4.3763 H	1 RES1 0.0
49 H22	-5.7925  0.6857  2.9531 H	1 RES1 0.0
50 H23	-6.9208  1.7642  3.1042 H	1 RES1 0.0
51 C25	-5.444  3.7399  4.173 C.3	1 RES1 0.0
52 H24	-5.5643  3.4612  5.084 H	1 RES1 0.0
53 H25	-6.266  4.1103  3.8414 H	1 RES1 0.0
54 H26	-4.7533  4.4074  4.1321 H	1 RES1 0.0
55 C26	3.7834  -3.0664  4.8704 C.3	1 RES1 0.0
56 H27	3.1226  -3.7623  4.9056 H	1 RES1 0.0
57 H28	3.761  -2.5618  5.6859 H	1 RES1 0.0
58 H29	4.6538  -3.4571  4.758 H	1 RES1 0.0
59 C27	4.5884  -1.0662  3.7573 C.3	1 RES1 0.0
60 H30	4.5982  -0.6308  4.6126 H	1 RES1 0.0
61 H31	4.4113  -0.4192  3.0713 H	1 RES1 0.0
62 H32	5.4404  -1.4793  3.5972 H	1 RES1 0.0
63 C28	3.4968  -2.7917  2.4091 C.3	1 RES1 0.0
64 H33	2.8213  -3.4754  2.4068 H	1 RES1 0.0
65 H34	4.3532  -3.1865  2.2319 H	1 RES1 0.0
66 H35	3.2973  -2.1426  1.7299 H	1 RES1 0.0
@<TRIPOS>BOND
1 1 3 1
1 1 4 1
1 1 9 1
1 2 10 1
1 2 20 1
1 3 7 ar
1 3 28 ar
1 4 5 ar
1 4 23 ar
1 5 17 1
1 5 21 ar
1 6 17 1
1 6 42 1
1 7 8 1
1 7 38 ar
1 9 24 ar
1 9 26 ar
1 10 11 1
1 10 12 1
1 10 23 1
1 13 14 1
1 13 15 ar
1 13 23 ar
1 15 16 1
1 15 21 ar
1 17 18 1
1 17 19 1
1 20 43 1
1 20 47 1
1 20 51 1
1 21 22 1
1 24 25 1
1 24 30 ar
1 26 27 1
1 26 34 ar
1 28 29 1
1 28 32 ar
1 30 31 1
1 30 36 ar
1 32 33 1
1 32 40 ar
1 34 35 1
1 34 36 ar
1 36 37 1
1 38 39 1
1 38 40 ar
1 40 41 1
1 42 55 1
1 42 59 1
1 42 63 1
1 43 44 1
1 43 45 1
1 43 46 1
1 47 48 1
1 47 49 1
1 47 50 1
1 51 52 1
1 51 53 1
1 51 54 1
1 55 56 1
1 55 57 1
1 55 58 1
1 59 60 1
1 59 61 1
1 59 62 1
1 63 64 1
1 63 65 1
1 63 66 1
@<TRIPOS>SUBSTRUCTURE
1 RES1 66

