@<TRIPOS>MOLECULE

31	32	1
SMALL
PartialCharges
****
Generated from molSimplify

@<TRIPOS>ATOM
1 P1	10.9153  3.5283  15.0637 P.3	1 RES1 0.0
2 O1	11.4434  4.513  16.2262 O.3	1 RES1 0.0
3 H1	11.8406  5.1759  15.8647 H	1 RES1 0.0
4 C1	9.1273  3.7101  15.1278 C.ar	1 RES1 0.0
5 C2	8.4768  4.4445  14.1468 C.ar	1 RES1 0.0
6 H2	8.9581  4.7299  13.3784 H	1 RES1 0.0
7 C3	7.1331  4.7657  14.275 C.ar	1 RES1 0.0
8 H3	6.7059  5.2761  13.598 H	1 RES1 0.0
9 C4	6.4095  4.3473  15.3854 C.ar	1 RES1 0.0
10 C5	7.0554  3.5781  16.35 C.ar	1 RES1 0.0
11 H4	6.5679  3.2702  17.1049 H	1 RES1 0.0
12 C6	8.4022  3.2528  16.2284 C.ar	1 RES1 0.0
13 H5	8.8265  2.7209  16.8912 H	1 RES1 0.0
14 C7	4.9674  4.7493  15.5412 C.3	1 RES1 0.0
15 H6	4.6109  4.3719  16.372 H	1 RES1 0.0
16 H7	4.9012  5.7262  15.5691 H	1 RES1 0.0
17 H8	4.4487  4.4097  14.7803 H	1 RES1 0.0
18 C8	11.2656  1.9016  15.7641 C.ar	1 RES1 0.0
19 C9	10.7708  0.761  15.1522 C.ar	1 RES1 0.0
20 H9	10.2108  0.8449  14.3889 H	1 RES1 0.0
21 C10	11.076  -0.4951  15.635 C.ar	1 RES1 0.0
22 H10	10.7198  -1.2643  15.2057 H	1 RES1 0.0
23 C11	11.9014  -0.6454  16.7454 C.ar	1 RES1 0.0
24 C12	12.4113  0.492  17.3425 C.ar	1 RES1 0.0
25 H11	12.987  0.4051  18.0914 H	1 RES1 0.0
26 C13	12.1  1.7563  16.8718 C.ar	1 RES1 0.0
27 H12	12.4549  2.5245  17.3046 H	1 RES1 0.0
28 C14	12.2277  -2.0243  17.2487 C.3	1 RES1 0.0
29 H13	12.8162  -1.9578  18.0295 H	1 RES1 0.0
30 H14	11.3989  -2.4856  17.5003 H	1 RES1 0.0
31 H15	12.6802  -2.5307  16.5417 H	1 RES1 0.0
@<TRIPOS>BOND
1 1 2 1
1 1 4 1
1 1 18 1
1 2 3 1
1 4 5 ar
1 4 12 ar
1 5 6 1
1 5 7 ar
1 7 8 1
1 7 9 ar
1 9 10 ar
1 9 14 1
1 10 11 1
1 10 12 ar
1 12 13 1
1 14 15 1
1 14 16 1
1 14 17 1
1 18 19 ar
1 18 26 ar
1 19 20 1
1 19 21 ar
1 21 22 1
1 21 23 ar
1 23 24 ar
1 23 28 1
1 24 25 1
1 24 26 ar
1 26 27 1
1 28 29 1
1 28 30 1
1 28 31 1
@<TRIPOS>SUBSTRUCTURE
1 RES1 31

