@<TRIPOS>MOLECULE

31	30	1
SMALL
PartialCharges
****
Generated from molSimplify

@<TRIPOS>ATOM
1 P1	5.8532  2.5673  17.0281 P.3	1 RES1 0.0
2 C1	6.87  3.6391  18.203 C.3	1 RES1 0.0
3 C2	6.0102  4.7226  18.8407 C.3	1 RES1 0.0
4 H1	5.2116  4.3156  19.2363 H	1 RES1 0.0
5 H2	5.7417  5.3697  18.1558 H	1 RES1 0.0
6 H3	6.5248  5.179  19.5374 H	1 RES1 0.0
7 C3	7.3401  2.7334  19.3219 C.3	1 RES1 0.0
8 H4	7.7444  3.2743  20.0334 H	1 RES1 0.0
9 H5	8.005  2.1028  18.9735 H	1 RES1 0.0
10 H6	6.5771  2.2366  19.685 H	1 RES1 0.0
11 C4	8.0952  4.2936  17.5329 C.3	1 RES1 0.0
12 H7	8.6288  4.7574  18.2089 H	1 RES1 0.0
13 H8	7.7934  4.9352  16.8568 H	1 RES1 0.0
14 H9	8.641  3.6006  17.1048 H	1 RES1 0.0
15 C5	5.4789  3.4521  15.3985 C.3	1 RES1 0.0
16 C6	4.9765  4.8912  15.6051 C.3	1 RES1 0.0
17 H10	5.6994  5.4394  15.98 H	1 RES1 0.0
18 H11	4.218  4.8876  16.2251 H	1 RES1 0.0
19 H12	4.6948  5.2652  14.746 H	1 RES1 0.0
20 C7	4.3406  2.6473  14.7549 C.3	1 RES1 0.0
21 H13	3.572  2.6234  15.363 H	1 RES1 0.0
22 H14	4.6457  1.7325  14.5778 H	1 RES1 0.0
23 H15	4.0766  3.0726  13.9106 H	1 RES1 0.0
24 C8	6.6595  3.5053  14.4331 C.3	1 RES1 0.0
25 H16	6.3956  3.9874  13.6213 H	1 RES1 0.0
26 H17	6.9313  2.5941  14.1999 H	1 RES1 0.0
27 H18	7.4091  3.9709  14.8582 H	1 RES1 0.0
28 C9	7.1385  1.3786  16.4524 C.3	1 RES1 0.0
29 H19	7.9404  1.8718  16.1808 H	1 RES1 0.0
30 H20	6.7943  0.869  15.6907 H	1 RES1 0.0
31 H21	7.3646  0.7645  17.1816 H	1 RES1 0.0
@<TRIPOS>BOND
1 1 2 1
1 1 15 1
1 1 28 1
1 2 3 1
1 2 7 1
1 2 11 1
1 3 4 1
1 3 5 1
1 3 6 1
1 7 8 1
1 7 9 1
1 7 10 1
1 11 12 1
1 11 13 1
1 11 14 1
1 15 16 1
1 15 20 1
1 15 24 1
1 16 17 1
1 16 18 1
1 16 19 1
1 20 21 1
1 20 22 1
1 20 23 1
1 24 25 1
1 24 26 1
1 24 27 1
1 28 29 1
1 28 30 1
1 28 31 1
@<TRIPOS>SUBSTRUCTURE
1 RES1 31

