@<TRIPOS>MOLECULE

54	56	1
SMALL
PartialCharges
****
Generated from molSimplify

@<TRIPOS>ATOM
1 P1	5.265  1.2436  9.195 P.3	1 RES1 0.0
2 N1	5.7746  2.8409  9.4083 N.pl3	1 RES1 0.0
3 H1	5.7067  2.9746  10.2529 H	1 RES1 0.0
4 C1	4.4822  1.2263  7.5706 C.ar	1 RES1 0.0
5 C2	5.1263  0.7507  6.4314 C.ar	1 RES1 0.0
6 H2	5.9721  0.3702  6.5039 H	1 RES1 0.0
7 C3	3.1997  1.7603  7.4571 C.ar	1 RES1 0.0
8 H3	2.752  2.0539  8.2175 H	1 RES1 0.0
9 C4	5.352  3.9272  8.5565 C.ar	1 RES1 0.0
10 C5	6.607  -1.1562  8.8494 C.ar	1 RES1 0.0
11 H4	5.7644  -1.5171  8.6909 H	1 RES1 0.0
12 C6	6.7568  0.2184  9.0754 C.ar	1 RES1 0.0
13 C7	6.0924  4.2123  7.3999 C.ar	1 RES1 0.0
14 C8	8.9767  -1.4569  9.1354 C.ar	1 RES1 0.0
15 H5	9.7169  -2.0196  9.1633 H	1 RES1 0.0
16 C9	9.1281  -0.1036  9.3626 C.ar	1 RES1 0.0
17 H6	9.9723  0.2463  9.5367 H	1 RES1 0.0
18 C10	7.7235  -1.9776  8.871 C.ar	1 RES1 0.0
19 H7	7.6316  -2.8872  8.6997 H	1 RES1 0.0
20 C11	4.5038  0.8326  5.1953 C.ar	1 RES1 0.0
21 H8	4.9387  0.5134  4.4377 H	1 RES1 0.0
22 C12	8.0179  0.7369  9.3358 C.ar	1 RES1 0.0
23 H9	8.122  1.6491  9.4851 H	1 RES1 0.0
24 C13	3.2508  1.3934  5.0841 C.ar	1 RES1 0.0
25 H10	2.8417  1.457  4.251 H	1 RES1 0.0
26 C14	4.221  4.6801  8.9126 C.ar	1 RES1 0.0
27 C15	7.3327  3.4169  7.0385 C.3	1 RES1 0.0
28 H11	7.2071  2.5053  7.375 H	1 RES1 0.0
29 C16	2.5959  1.8597  6.2194 C.ar	1 RES1 0.0
30 H12	1.7491  2.2364  6.1436 H	1 RES1 0.0
31 C17	3.3809  4.3539  10.1347 C.3	1 RES1 0.0
32 H13	3.5316  3.41  10.3507 H	1 RES1 0.0
33 C18	1.8863  4.5286  9.8816 C.3	1 RES1 0.0
34 H14	1.6745  5.4646  9.8674 H	1 RES1 0.0
35 H15	1.3891  4.0977  10.5814 H	1 RES1 0.0
36 H16	1.6529  4.1356  9.0358 H	1 RES1 0.0
37 C19	7.5897  3.3145  5.5321 C.3	1 RES1 0.0
38 H17	6.8197  2.9366  5.1012 H	1 RES1 0.0
39 H18	8.3534  2.7547  5.3725 H	1 RES1 0.0
40 H19	7.7564  4.1909  5.1781 H	1 RES1 0.0
41 C20	3.8061  5.1737  11.3514 C.3	1 RES1 0.0
42 H20	4.7204  4.976  11.5711 H	1 RES1 0.0
43 H21	3.2435  4.9546  12.0983 H	1 RES1 0.0
44 H22	3.72  6.1082  11.1493 H	1 RES1 0.0
45 C21	3.8765  5.756  8.0934 C.ar	1 RES1 0.0
46 H23	3.1429  6.2813  8.3185 H	1 RES1 0.0
47 C22	5.6826  5.2824  6.6116 C.ar	1 RES1 0.0
48 H24	6.1523  5.4802  5.8339 H	1 RES1 0.0
49 C23	8.5558  3.9963  7.743 C.3	1 RES1 0.0
50 H25	8.7186  4.8856  7.4211 H	1 RES1 0.0
51 H26	9.3224  3.4466  7.565 H	1 RES1 0.0
52 H27	8.3948  4.0233  8.6887 H	1 RES1 0.0
53 C24	4.5898  6.0495  6.9576 C.ar	1 RES1 0.0
54 H28	4.3423  6.7727  6.4292 H	1 RES1 0.0
@<TRIPOS>BOND
1 1 2 1
1 1 4 1
1 1 12 1
1 2 3 1
1 2 9 1
1 4 5 ar
1 4 7 ar
1 5 6 1
1 5 20 ar
1 7 8 1
1 7 29 ar
1 9 13 ar
1 9 26 ar
1 10 11 1
1 10 12 ar
1 10 18 ar
1 12 22 ar
1 13 27 1
1 13 47 ar
1 14 15 1
1 14 16 ar
1 14 18 ar
1 16 17 1
1 16 22 ar
1 18 19 1
1 20 21 1
1 20 24 ar
1 22 23 1
1 24 25 1
1 24 29 ar
1 26 31 1
1 26 45 ar
1 27 28 1
1 27 37 1
1 27 49 1
1 29 30 1
1 31 32 1
1 31 33 1
1 31 41 1
1 33 34 1
1 33 35 1
1 33 36 1
1 37 38 1
1 37 39 1
1 37 40 1
1 41 42 1
1 41 43 1
1 41 44 1
1 45 46 1
1 45 53 ar
1 47 48 1
1 47 53 ar
1 49 50 1
1 49 51 1
1 49 52 1
1 53 54 1
@<TRIPOS>SUBSTRUCTURE
1 RES1 54

