@<TRIPOS>MOLECULE

53	58	1
SMALL
PartialCharges
****
Generated from molSimplify

@<TRIPOS>ATOM
1 P1	0.8142  -1.1284  1.8916 P.3	1 RES1 0.0
2 O1	2.2498  -1.7892  1.5621 O.3	1 RES1 0.0
3 H1	2.4131  -1.7546  0.808 H	1 RES1 0.0
4 C1	1.2674  0.0015  3.2969 C.3	1 RES1 0.0
5 C2	1.9179  1.2201  2.5952 C.3	1 RES1 0.0
6 H2	2.6887  0.9195  2.0516 H	1 RES1 0.0
7 H3	1.2603  1.6454  1.9897 H	1 RES1 0.0
8 C3	2.3899  2.239  3.6424 C.3	1 RES1 0.0
9 H4	2.8044  3.02  3.1778 H	1 RES1 0.0
10 C4	3.4226  1.5986  4.564 C.3	1 RES1 0.0
11 H5	3.7388  2.2619  5.2281 H	1 RES1 0.0
12 H6	4.2018  1.2921  4.0363 H	1 RES1 0.0
13 C5	2.7792  0.4063  5.2849 C.3	1 RES1 0.0
14 H7	3.4512  -0.0147  5.8935 H	1 RES1 0.0
15 C6	1.5845  0.8743  6.1018 C.3	1 RES1 0.0
16 H8	1.8797  1.5291  6.7835 H	1 RES1 0.0
17 H9	1.1733  0.1043  6.5676 H	1 RES1 0.0
18 C7	0.5648  1.5216  5.1688 C.3	1 RES1 0.0
19 H10	-0.2171  1.8414  5.7053 H	1 RES1 0.0
20 C8	0.0838  0.4745  4.1438 C.3	1 RES1 0.0
21 H11	-0.3179  -0.2962  4.617 H	1 RES1 0.0
22 H12	-0.6083  0.8721  3.559 H	1 RES1 0.0
23 C9	2.3278  -0.6266  4.232 C.3	1 RES1 0.0
24 H13	1.9451  -1.4193  4.6852 H	1 RES1 0.0
25 H14	3.1077  -0.9217  3.6992 H	1 RES1 0.0
26 C10	1.2029  2.7132  4.4466 C.3	1 RES1 0.0
27 H15	0.5383  3.1351  3.8469 H	1 RES1 0.0
28 H16	1.4951  3.3881  5.1094 H	1 RES1 0.0
29 C11	-0.1831  -2.628  2.3407 C.3	1 RES1 0.0
30 C12	0.5189  -3.4963  3.4012 C.3	1 RES1 0.0
31 H17	0.5815  -2.9968  4.2534 H	1 RES1 0.0
32 H18	1.4379  -3.7106  3.1008 H	1 RES1 0.0
33 C13	-0.2739  -4.8029  3.6209 C.3	1 RES1 0.0
34 H19	0.1842  -5.3584  4.3153 H	1 RES1 0.0
35 C14	-1.682  -4.4485  4.1007 C.3	1 RES1 0.0
36 H20	-2.1969  -5.2772  4.2661 H	1 RES1 0.0
37 H21	-1.6287  -3.9432  4.9503 H	1 RES1 0.0
38 C15	-2.3911  -3.6035  3.0427 C.3	1 RES1 0.0
39 H22	-3.3143  -3.3837  3.3583 H	1 RES1 0.0
40 C16	-2.4763  -4.3947  1.7322 C.3	1 RES1 0.0
41 H23	-2.9932  -5.2261  1.8748 H	1 RES1 0.0
42 H24	-2.9408  -3.8542  1.0441 H	1 RES1 0.0
43 C17	-1.0719  -4.736  1.2575 C.3	1 RES1 0.0
44 H25	-1.1282  -5.25  0.4015 H	1 RES1 0.0
45 C18	-0.2858  -3.4404  1.02 C.3	1 RES1 0.0
46 H26	-0.742  -2.8973  0.3295 H	1 RES1 0.0
47 H27	0.6219  -3.6582  0.6919 H	1 RES1 0.0
48 C19	-1.6092  -2.3  2.8066 C.3	1 RES1 0.0
49 H28	-2.0677  -1.7554  2.1185 H	1 RES1 0.0
50 H29	-1.5738  -1.7745  3.6449 H	1 RES1 0.0
51 C20	-0.3468  -5.5838  2.3104 C.3	1 RES1 0.0
52 H30	-0.8346  -6.4334  2.4518 H	1 RES1 0.0
53 H31	0.5677  -5.7998  1.996 H	1 RES1 0.0
@<TRIPOS>BOND
1 1 2 1
1 1 4 1
1 1 29 1
1 2 3 1
1 4 5 1
1 4 20 1
1 4 23 1
1 5 6 1
1 5 7 1
1 5 8 1
1 8 9 1
1 8 10 1
1 8 26 1
1 10 11 1
1 10 12 1
1 10 13 1
1 13 14 1
1 13 15 1
1 13 23 1
1 15 16 1
1 15 17 1
1 15 18 1
1 18 19 1
1 18 20 1
1 18 26 1
1 20 21 1
1 20 22 1
1 23 24 1
1 23 25 1
1 26 27 1
1 26 28 1
1 29 30 1
1 29 45 1
1 29 48 1
1 30 31 1
1 30 32 1
1 30 33 1
1 33 34 1
1 33 35 1
1 33 51 1
1 35 36 1
1 35 37 1
1 35 38 1
1 38 39 1
1 38 40 1
1 38 48 1
1 40 41 1
1 40 42 1
1 40 43 1
1 43 44 1
1 43 45 1
1 43 51 1
1 45 46 1
1 45 47 1
1 48 49 1
1 48 50 1
1 51 52 1
1 51 53 1
@<TRIPOS>SUBSTRUCTURE
1 RES1 53

