@<TRIPOS>MOLECULE

41	44	1
SMALL
PartialCharges
****
Generated from molSimplify

@<TRIPOS>ATOM
1 P1	7.3797  5.0741  -2.8828 P.3	1 RES1 0.0
2 O1	6.4482  3.4283  -0.9621 O.3	1 RES1 0.0
3 O2	5.5007  5.1124  0.3912 O.3	1 RES1 0.0
4 O3	6.1396  6.79  -1.1246 O.3	1 RES1 0.0
5 C1	5.958  4.0259  -2.1917 C.3	1 RES1 0.0
6 C2	6.673  4.3487  0.119 C.3	1 RES1 0.0
7 C3	7.8122  5.3149  -0.2018 C.3	1 RES1 0.0
8 H1	8.631  4.8019  -0.4166 H	1 RES1 0.0
9 H2	8.0007  5.8793  0.5885 H	1 RES1 0.0
10 C4	7.4379  6.2039  -1.3891 C.3	1 RES1 0.0
11 C5	5.6035  2.8811  -3.1236 C.3	1 RES1 0.0
12 H3	4.8513  2.3756  -2.7494 H	1 RES1 0.0
13 H4	6.3782  2.2889  -3.2228 H	1 RES1 0.0
14 H5	5.3525  3.2389  -4.0004 H	1 RES1 0.0
15 C6	6.9198  3.5058  1.3502 C.3	1 RES1 0.0
16 H6	6.1735  2.8824  1.4745 H	1 RES1 0.0
17 H7	6.9921  4.0874  2.1358 H	1 RES1 0.0
18 H8	7.7524  3.0018  1.2405 H	1 RES1 0.0
19 C7	8.3847  7.3675  -1.5944 C.3	1 RES1 0.0
20 H9	8.4187  7.9099  -0.7789 H	1 RES1 0.0
21 H10	8.0681  7.9181  -2.3394 H	1 RES1 0.0
22 H11	9.2804  7.0271  -1.7972 H	1 RES1 0.0
23 C8	4.7618  4.9093  -1.8693 C.3	1 RES1 0.0
24 H12	3.9956  4.3425  -1.5989 H	1 RES1 0.0
25 H13	4.4979  5.4166  -2.678 H	1 RES1 0.0
26 C9	5.0975  5.8836  -0.7434 C.3	1 RES1 0.0
27 C10	3.9324  6.7336  -0.3253 C.3	1 RES1 0.0
28 H14	4.1986  7.3066  0.4245 H	1 RES1 0.0
29 H15	3.1904  6.1573  -0.0489 H	1 RES1 0.0
30 H16	3.6488  7.2919  -1.0791 H	1 RES1 0.0
31 C11	6.622  6.0011  -4.2666 C.ar	1 RES1 0.0
32 C12	5.7949  7.135  -4.1366 C.ar	1 RES1 0.0
33 H17	5.6521  7.5208  -3.2797 H	1 RES1 0.0
34 C13	5.1853  7.6923  -5.2568 C.ar	1 RES1 0.0
35 H18	4.6251  8.4527  -5.1563 H	1 RES1 0.0
36 C14	5.3844  7.151  -6.5131 C.ar	1 RES1 0.0
37 H19	4.9416  7.5208  -7.2682 H	1 RES1 0.0
38 C15	6.2387  6.0628  -6.6692 C.ar	1 RES1 0.0
39 H20	6.4051  5.7093  -7.5354 H	1 RES1 0.0
40 C16	6.8481  5.4938  -5.5541 C.ar	1 RES1 0.0
41 H21	7.4258  4.7496  -5.6667 H	1 RES1 0.0
@<TRIPOS>BOND
1 1 5 1
1 1 10 1
1 1 31 1
1 2 5 1
1 2 6 1
1 3 6 1
1 3 26 1
1 4 10 1
1 4 26 1
1 5 11 1
1 5 23 1
1 6 7 1
1 6 15 1
1 7 8 1
1 7 9 1
1 7 10 1
1 10 19 1
1 11 12 1
1 11 13 1
1 11 14 1
1 15 16 1
1 15 17 1
1 15 18 1
1 19 20 1
1 19 21 1
1 19 22 1
1 23 24 1
1 23 25 1
1 23 26 1
1 26 27 1
1 27 28 1
1 27 29 1
1 27 30 1
1 31 32 ar
1 31 40 ar
1 32 33 1
1 32 34 ar
1 34 35 1
1 34 36 ar
1 36 37 1
1 36 38 ar
1 38 39 1
1 38 40 ar
1 40 41 1
@<TRIPOS>SUBSTRUCTURE
1 RES1 41

