@<TRIPOS>MOLECULE

42	43	1
SMALL
PartialCharges
****
Generated from molSimplify

@<TRIPOS>ATOM
1 P1	1.2436  1.2971  13.9578 P.3	1 RES1 0.0
2 C1	1.5436  2.9769  13.2995 C.3	1 RES1 0.0
3 H1	0.6742  3.4121  13.1109 H	1 RES1 0.0
4 H2	2.0107  3.5162  13.9856 H	1 RES1 0.0
5 C2	2.3772  2.9583  12.0283 C.3	1 RES1 0.0
6 H3	3.3017  2.7187  12.2486 H	1 RES1 0.0
7 H4	2.3595  3.8461  11.6131 H	1 RES1 0.0
8 H5	2.0078  2.2988  11.4038 H	1 RES1 0.0
9 C3	2.9235  0.6821  14.3465 C.3	1 RES1 0.0
10 H6	2.8457  -0.2435  14.6884 H	1 RES1 0.0
11 H7	3.4442  0.644  13.5046 H	1 RES1 0.0
12 C4	3.7122  1.503  15.3605 C.3	1 RES1 0.0
13 H8	3.8334  2.4135  15.0198 H	1 RES1 0.0
14 H9	4.5883  1.0886  15.5058 H	1 RES1 0.0
15 H10	3.2209  1.5332  16.2086 H	1 RES1 0.0
16 C5	0.3826  1.5644  15.5549 C.ar	1 RES1 0.0
17 C6	-0.0463  2.8514  15.901 C.ar	1 RES1 0.0
18 H11	0.1219  3.5744  15.3089 H	1 RES1 0.0
19 C7	-0.7116  3.0891  17.0932 C.ar	1 RES1 0.0
20 H12	-0.9995  3.9696  17.3051 H	1 RES1 0.0
21 C8	-0.9584  2.054  17.9742 C.ar	1 RES1 0.0
22 H13	-1.4056  2.2142  18.7978 H	1 RES1 0.0
23 C9	-0.5398  0.7761  17.635 C.ar	1 RES1 0.0
24 H14	-0.7013  0.0635  18.2421 H	1 RES1 0.0
25 C10	0.1087  0.5002  16.4351 C.ar	1 RES1 0.0
26 C11	0.4964  -0.9398  16.1315 C.3	1 RES1 0.0
27 H15	0.8504  -0.9651  15.1968 H	1 RES1 0.0
28 C12	-0.6954  -1.8999  16.1986 C.3	1 RES1 0.0
29 H16	-1.4019  -1.5984  15.5731 H	1 RES1 0.0
30 H17	-1.0722  -1.9001  17.1132 H	1 RES1 0.0
31 C13	-0.2475  -3.3179  15.8255 C.3	1 RES1 0.0
32 H18	-1.0215  -3.9326  15.8746 H	1 RES1 0.0
33 H19	0.0925  -3.3239  14.8952 H	1 RES1 0.0
34 C14	0.8387  -3.7964  16.7645 C.3	1 RES1 0.0
35 H20	1.1258  -4.7053  16.5001 H	1 RES1 0.0
36 H21	0.4803  -3.8443  17.6864 H	1 RES1 0.0
37 C15	2.0357  -2.8583  16.7346 C.3	1 RES1 0.0
38 H22	2.4513  -2.8828  15.8372 H	1 RES1 0.0
39 H23	2.7091  -3.1633  17.3923 H	1 RES1 0.0
40 C16	1.6171  -1.4239  17.0621 C.3	1 RES1 0.0
41 H24	2.3999  -0.8257  16.9711 H	1 RES1 0.0
42 H25	1.305  -1.3797  18.0004 H	1 RES1 0.0
@<TRIPOS>BOND
1 1 2 1
1 1 9 1
1 1 16 1
1 2 3 1
1 2 4 1
1 2 5 1
1 5 6 1
1 5 7 1
1 5 8 1
1 9 10 1
1 9 11 1
1 9 12 1
1 12 13 1
1 12 14 1
1 12 15 1
1 16 17 ar
1 16 25 ar
1 17 18 1
1 17 19 ar
1 19 20 1
1 19 21 ar
1 21 22 1
1 21 23 ar
1 23 24 1
1 23 25 ar
1 25 26 1
1 26 27 1
1 26 28 1
1 26 40 1
1 28 29 1
1 28 30 1
1 28 31 1
1 31 32 1
1 31 33 1
1 31 34 1
1 34 35 1
1 34 36 1
1 34 37 1
1 37 38 1
1 37 39 1
1 37 40 1
1 40 41 1
1 40 42 1
@<TRIPOS>SUBSTRUCTURE
1 RES1 42

