@<TRIPOS>MOLECULE

52	53	1
SMALL
PartialCharges
****
Generated from molSimplify

@<TRIPOS>ATOM
1 P1	2.669  4.9592  3.5057 P.3	1 RES1 0.0
2 O1	1.2691  4.2205  3.637 O.3	1 RES1 0.0
3 O2	2.7906  5.2923  1.9627 O.3	1 RES1 0.0
4 N1	2.3963  6.345  4.3264 N.3	1 RES1 0.0
5 C1	1.2213  6.7509  5.1466 C.3	1 RES1 0.0
6 H1	1.4951  7.5706  5.6089 H	1 RES1 0.0
7 C2	1.2408  5.8638  0.1757 C.ar	1 RES1 0.0
8 C3	-0.1129  2.6094  2.4651 C.ar	1 RES1 0.0
9 C4	1.8328  5.5895  -1.0319 C.ar	1 RES1 0.0
10 H2	2.7532  5.6876  -1.1151 H	1 RES1 0.0
11 C5	3.6246  7.1753  4.4642 C.3	1 RES1 0.0
12 H3	4.2768  6.8137  3.8299 H	1 RES1 0.0
13 C6	3.3635  8.6233  4.0389 C.3	1 RES1 0.0
14 H4	2.9762  8.634  3.1605 H	1 RES1 0.0
15 H5	4.1917  9.109  4.0296 H	1 RES1 0.0
16 H6	2.7584  9.0354  4.6602 H	1 RES1 0.0
17 C7	-0.8573  5.2708  -0.8266 C.ar	1 RES1 0.0
18 H7	-1.7783  5.1544  -0.7601 H	1 RES1 0.0
19 C8	2.0867  6.3954  1.2945 C.3	1 RES1 0.0
20 H8	2.7316  7.0282  0.945 H	1 RES1 0.0
21 H9	1.5253  6.8597  1.9362 H	1 RES1 0.0
22 C9	0.0224  7.1401  4.3181 C.3	1 RES1 0.0
23 H10	0.2892  7.7652  3.6413 H	1 RES1 0.0
24 H11	-0.6393  7.5461  4.884 H	1 RES1 0.0
25 H12	-0.3489  6.3571  3.9039 H	1 RES1 0.0
26 C10	1.1695  2.8438  3.1863 C.3	1 RES1 0.0
27 H13	1.2243  2.2478  3.9501 H	1 RES1 0.0
28 H14	1.9131  2.6431  2.5964 H	1 RES1 0.0
29 C11	4.2407  7.039  5.8345 C.3	1 RES1 0.0
30 H15	4.3803  6.1089  6.0324 H	1 RES1 0.0
31 H16	3.6515  7.4205  6.491 H	1 RES1 0.0
32 H17	5.0827  7.4986  5.8549 H	1 RES1 0.0
33 C12	-1.3107  3.046  2.9589 C.ar	1 RES1 0.0
34 H18	-1.3325  3.5486  3.7411 H	1 RES1 0.0
35 C13	1.1077  5.1789  -2.1119 C.ar	1 RES1 0.0
36 H19	1.529  5.0256  -2.9274 H	1 RES1 0.0
37 C14	0.8359  5.7826  6.2395 C.3	1 RES1 0.0
38 H20	1.6111  5.5696  6.7647 H	1 RES1 0.0
39 H21	0.4855  4.9812  5.8475 H	1 RES1 0.0
40 H22	0.1688  6.184  6.8017 H	1 RES1 0.0
41 C15	-0.2176  4.9996  -1.9898 C.ar	1 RES1 0.0
42 H23	-0.704  4.6824  -2.7166 H	1 RES1 0.0
43 C16	-0.1092  1.8785  1.3352 C.ar	1 RES1 0.0
44 H24	0.6994  1.5904  0.9783 H	1 RES1 0.0
45 C17	-0.1142  5.7351  0.2848 C.ar	1 RES1 0.0
46 H25	-0.5449  5.9496  1.0818 H	1 RES1 0.0
47 C18	-1.2967  1.5491  0.6953 C.ar	1 RES1 0.0
48 H26	-1.2875  1.0097  -0.0629 H	1 RES1 0.0
49 C19	-2.4429  2.0087  1.1762 C.ar	1 RES1 0.0
50 H27	-3.2314  1.8187  0.7212 H	1 RES1 0.0
51 C20	-2.4958  2.7427  2.3024 C.ar	1 RES1 0.0
52 H28	-3.3114  3.0399  2.6353 H	1 RES1 0.0
@<TRIPOS>BOND
1 1 2 1
1 1 3 1
1 1 4 1
1 2 26 1
1 3 19 1
1 4 5 1
1 4 11 1
1 5 6 1
1 5 22 1
1 5 37 1
1 7 9 ar
1 7 19 1
1 7 45 ar
1 8 26 1
1 8 33 ar
1 8 43 ar
1 9 10 1
1 9 35 ar
1 11 12 1
1 11 13 1
1 11 29 1
1 13 14 1
1 13 15 1
1 13 16 1
1 17 18 1
1 17 41 ar
1 17 45 ar
1 19 20 1
1 19 21 1
1 22 23 1
1 22 24 1
1 22 25 1
1 26 27 1
1 26 28 1
1 29 30 1
1 29 31 1
1 29 32 1
1 33 34 1
1 33 51 ar
1 35 36 1
1 35 41 ar
1 37 38 1
1 37 39 1
1 37 40 1
1 41 42 1
1 43 44 1
1 43 47 ar
1 45 46 1
1 47 48 1
1 47 49 ar
1 49 50 1
1 49 51 ar
1 51 52 1
@<TRIPOS>SUBSTRUCTURE
1 RES1 52

