@<TRIPOS>MOLECULE

34	35	1
SMALL
PartialCharges
****
Generated from molSimplify

@<TRIPOS>ATOM
1 P1	2.442  18.2652  5.4663 P.3	1 RES1 0.0
2 O1	3.7244  22.3748  7.3148 O.3	1 RES1 0.0
3 H1	3.9192  22.0891  8.0796 H	1 RES1 0.0
4 C1	2.5612  19.7613  6.542 C.3	1 RES1 0.0
5 H2	2.0714  19.5594  7.3786 H	1 RES1 0.0
6 H3	3.5145  19.8691  6.7879 H	1 RES1 0.0
7 C2	2.0696  21.1132  6.0508 C.3	1 RES1 0.0
8 H4	2.5345  21.3451  5.2073 H	1 RES1 0.0
9 H5	1.0996  21.0611  5.8604 H	1 RES1 0.0
10 C3	2.3241  22.1976  7.0805 C.3	1 RES1 0.0
11 H6	1.9338  23.0502  6.7631 H	1 RES1 0.0
12 H7	1.8779  21.9544  7.9301 H	1 RES1 0.0
13 C4	3.2593  18.8466  3.9249 C.ar	1 RES1 0.0
14 C5	4.4444  19.5886  4.0035 C.ar	1 RES1 0.0
15 H8	4.764  19.8713  4.8532 H	1 RES1 0.0
16 C6	5.1585  19.9165  2.8637 C.ar	1 RES1 0.0
17 H9	5.9569  20.425  2.9365 H	1 RES1 0.0
18 C7	4.7173  19.5074  1.6224 C.ar	1 RES1 0.0
19 H10	5.2158  19.726  0.8426 H	1 RES1 0.0
20 C8	3.5437  18.7804  1.5175 C.ar	1 RES1 0.0
21 H11	3.2324  18.5019  0.6641 H	1 RES1 0.0
22 C9	2.8212  18.4562  2.6626 C.ar	1 RES1 0.0
23 H12	2.0145  17.9601  2.5818 H	1 RES1 0.0
24 C10	0.6538  18.3068  5.0158 C.ar	1 RES1 0.0
25 C11	0.0896  19.2699  4.1766 C.ar	1 RES1 0.0
26 H13	0.6482  19.9104  3.7519 H	1 RES1 0.0
27 C12	-1.2911  19.2989  3.9563 C.ar	1 RES1 0.0
28 H14	-1.6707  19.9617  3.3914 H	1 RES1 0.0
29 C13	-2.1041  18.355  4.5665 C.ar	1 RES1 0.0
30 H15	-3.0423  18.3739  4.4179 H	1 RES1 0.0
31 C14	-1.5633  17.3924  5.3864 C.ar	1 RES1 0.0
32 H16	-2.1251  16.7473  5.7992 H	1 RES1 0.0
33 C15	-0.1889  17.3657  5.6102 C.ar	1 RES1 0.0
34 H17	0.1812  16.6975  6.1748 H	1 RES1 0.0
@<TRIPOS>BOND
1 1 4 1
1 1 13 1
1 1 24 1
1 2 3 1
1 2 10 1
1 4 5 1
1 4 6 1
1 4 7 1
1 7 8 1
1 7 9 1
1 7 10 1
1 10 11 1
1 10 12 1
1 13 14 ar
1 13 22 ar
1 14 15 1
1 14 16 ar
1 16 17 1
1 16 18 ar
1 18 19 1
1 18 20 ar
1 20 21 1
1 20 22 ar
1 22 23 1
1 24 25 ar
1 24 33 ar
1 25 26 1
1 25 27 ar
1 27 28 1
1 27 29 ar
1 29 30 1
1 29 31 ar
1 31 32 1
1 31 33 ar
1 33 34 1
@<TRIPOS>SUBSTRUCTURE
1 RES1 34

