@<TRIPOS>MOLECULE

44	47	1
SMALL
PartialCharges
****
Generated from molSimplify

@<TRIPOS>ATOM
1 P1	6.5228  2.9318  4.3937 P.3	1 RES1 0.0
2 O1	4.5658  1.3132  3.4761 O.3	1 RES1 0.0
3 O2	3.0091  3.009  2.9891 O.3	1 RES1 0.0
4 O3	4.4585  4.6922  3.7544 O.3	1 RES1 0.0
5 C1	4.9594  1.9154  4.7301 C.3	1 RES1 0.0
6 C2	4.0939  2.2229  2.489 C.3	1 RES1 0.0
7 C3	5.1963  3.178  2.0395 C.3	1 RES1 0.0
8 H1	5.9725  2.6568  1.7155 H	1 RES1 0.0
9 H2	4.8668  3.7339  1.289 H	1 RES1 0.0
10 C4	5.6335  4.082  3.1873 C.3	1 RES1 0.0
11 C5	5.2068  0.7631  5.6782 C.3	1 RES1 0.0
12 H3	4.3939  0.2196  5.752 H	1 RES1 0.0
13 H4	5.4468  1.1123  6.5618 H	1 RES1 0.0
14 H5	5.9399  0.2098  5.3353 H	1 RES1 0.0
15 C6	3.5437  1.3697  1.3695 C.3	1 RES1 0.0
16 H6	2.8588  0.7659  1.7252 H	1 RES1 0.0
17 H7	4.269  0.8434  0.9737 H	1 RES1 0.0
18 H8	3.1465  1.9472  0.6834 H	1 RES1 0.0
19 C7	6.496  5.2325  2.687 C.3	1 RES1 0.0
20 H9	5.9623  5.8107  2.103 H	1 RES1 0.0
21 H10	7.2587  4.8758  2.185 H	1 RES1 0.0
22 H11	6.8228  5.7529  3.4504 H	1 RES1 0.0
23 C8	3.8483  2.831  5.2157 C.3	1 RES1 0.0
24 H12	3.0761  2.2851  5.5089 H	1 RES1 0.0
25 H13	4.1677  3.3524  5.9937 H	1 RES1 0.0
26 C9	3.405  3.7838  4.1188 C.3	1 RES1 0.0
27 C10	2.2347  4.6542  4.5137 C.3	1 RES1 0.0
28 H14	1.9688  5.2095  3.7504 H	1 RES1 0.0
29 H15	2.494  5.2306  5.2617 H	1 RES1 0.0
30 H16	1.4825  4.0873  4.7838 H	1 RES1 0.0
31 C11	6.8318  3.8468  5.957 C.ar	1 RES1 0.0
32 C12	6.2909  5.136  6.1427 C.ar	1 RES1 0.0
33 H17	5.7378  5.5079  5.4659 H	1 RES1 0.0
34 C13	6.5451  5.8691  7.284 C.ar	1 RES1 0.0
35 H18	6.1689  6.7357  7.3883 H	1 RES1 0.0
36 C14	7.3487  5.3393  8.2755 C.ar	1 RES1 0.0
37 H19	7.5351  5.8444  9.0579 H	1 RES1 0.0
38 C15	7.8798  4.0753  8.1246 C.ar	1 RES1 0.0
39 H20	8.4242  3.7198  8.8162 H	1 RES1 0.0
40 C16	7.6396  3.2984  6.9803 C.ar	1 RES1 0.0
41 C17	8.2241  1.9036  6.9687 C.3	1 RES1 0.0
42 H21	9.1755  1.9458  7.2008 H	1 RES1 0.0
43 H22	8.1221  1.515  6.0756 H	1 RES1 0.0
44 H23	7.7528  1.346  7.623 H	1 RES1 0.0
@<TRIPOS>BOND
1 1 5 1
1 1 10 1
1 1 31 1
1 2 5 1
1 2 6 1
1 3 6 1
1 3 26 1
1 4 10 1
1 4 26 1
1 5 11 1
1 5 23 1
1 6 7 1
1 6 15 1
1 7 8 1
1 7 9 1
1 7 10 1
1 10 19 1
1 11 12 1
1 11 13 1
1 11 14 1
1 15 16 1
1 15 17 1
1 15 18 1
1 19 20 1
1 19 21 1
1 19 22 1
1 23 24 1
1 23 25 1
1 23 26 1
1 26 27 1
1 27 28 1
1 27 29 1
1 27 30 1
1 31 32 ar
1 31 40 ar
1 32 33 1
1 32 34 ar
1 34 35 1
1 34 36 ar
1 36 37 1
1 36 38 ar
1 38 39 1
1 38 40 ar
1 40 41 1
1 41 42 1
1 41 43 1
1 41 44 1
@<TRIPOS>SUBSTRUCTURE
1 RES1 44

