@<TRIPOS>MOLECULE

73	78	1
SMALL
PartialCharges
****
Generated from molSimplify

@<TRIPOS>ATOM
1 P1	9.8527  13.1279  6.2793 P.3	1 RES1 0.0
2 C1	8.3652  12.3035  6.9767 C.ar	1 RES1 0.0
3 C2	8.0515  10.9852  6.592 C.ar	1 RES1 0.0
4 C3	6.8409  10.4444  7.0158 C.ar	1 RES1 0.0
5 H1	6.6189  9.5552  6.7668 H	1 RES1 0.0
6 C4	5.9476  11.1705  7.7923 C.ar	1 RES1 0.0
7 H2	5.1271  10.7785  8.0663 H	1 RES1 0.0
8 C5	6.256  12.4604  8.1642 C.ar	1 RES1 0.0
9 H3	5.6463  12.9623  8.6928 H	1 RES1 0.0
10 C6	7.46  13.0265  7.7639 C.ar	1 RES1 0.0
11 H4	7.6726  13.9136  8.0278 H	1 RES1 0.0
12 C7	9.0088  10.1446  5.7752 C.3	1 RES1 0.0
13 H5	9.5743  10.7526  5.2349 H	1 RES1 0.0
14 H6	9.6055  9.6588  6.3982 H	1 RES1 0.0
15 C8	8.3692  9.1395  4.8481 C.ar	1 RES1 0.0
16 C9	8.475  7.779  5.0864 C.ar	1 RES1 0.0
17 H7	8.9151  7.4713  5.8711 H	1 RES1 0.0
18 C10	7.9438  6.8572  4.1886 C.ar	1 RES1 0.0
19 H8	8.0266  5.9259  4.3584 H	1 RES1 0.0
20 C11	7.2966  7.2936  3.0493 C.ar	1 RES1 0.0
21 H9	6.9339  6.6662  2.4356 H	1 RES1 0.0
22 C12	7.177  8.6539  2.8073 C.ar	1 RES1 0.0
23 H10	6.729  8.9592  2.027 H	1 RES1 0.0
24 C13	7.709  9.5666  3.6976 C.ar	1 RES1 0.0
25 H11	7.6243  10.4972  3.5236 H	1 RES1 0.0
26 C14	11.276  12.3142  7.122 C.ar	1 RES1 0.0
27 C15	12.5917  12.527  6.6418 C.ar	1 RES1 0.0
28 C16	13.6336  11.8095  7.2348 C.ar	1 RES1 0.0
29 H12	14.5214  11.937  6.919 H	1 RES1 0.0
30 C17	13.4098  10.9193  8.2666 C.ar	1 RES1 0.0
31 H13	14.1351  10.4361  8.6448 H	1 RES1 0.0
32 C18	12.1197  10.7337  8.7505 C.ar	1 RES1 0.0
33 H14	11.9609  10.1344  9.47 H	1 RES1 0.0
34 C19	11.0674  11.4286  8.1759 C.ar	1 RES1 0.0
35 H15	10.1875  11.2985  8.5069 H	1 RES1 0.0
36 C20	12.864  13.5275  5.5386 C.3	1 RES1 0.0
37 H16	12.1666  13.4194  4.8455 H	1 RES1 0.0
38 H17	12.7648  14.4373  5.9159 H	1 RES1 0.0
39 C21	14.2111  13.4437  4.8654 C.ar	1 RES1 0.0
40 C22	15.2866  14.1653  5.3551 C.ar	1 RES1 0.0
41 H18	15.1746  14.7038  6.1306 H	1 RES1 0.0
42 C23	16.5217  14.119  4.735 C.ar	1 RES1 0.0
43 H19	17.2455  14.6261  5.0811 H	1 RES1 0.0
44 C24	16.7041  13.3417  3.6229 C.ar	1 RES1 0.0
45 H20	17.5573  13.2991  3.2063 H	1 RES1 0.0
46 C25	15.6457  12.6144  3.1038 C.ar	1 RES1 0.0
47 H21	15.767  12.0795  2.3282 H	1 RES1 0.0
48 C26	14.4036  12.6751  3.7269 C.ar	1 RES1 0.0
49 H22	13.6753  12.1813  3.3666 H	1 RES1 0.0
50 C27	9.8207  14.8176  7.0091 C.ar	1 RES1 0.0
51 C28	9.0324  15.8753  6.4896 C.ar	1 RES1 0.0
52 C29	9.1073  17.0949  7.1706 C.ar	1 RES1 0.0
53 H23	8.6193  17.8389  6.8357 H	1 RES1 0.0
54 C30	9.8746  17.2578  8.3243 C.ar	1 RES1 0.0
55 H24	9.9083  18.1072  8.7489 H	1 RES1 0.0
56 C31	10.5872  16.1955  8.8595 C.ar	1 RES1 0.0
57 H25	11.1024  16.3028  9.651 H	1 RES1 0.0
58 C32	10.5266  14.974  8.2105 C.ar	1 RES1 0.0
59 H26	10.9771  14.2245  8.5855 H	1 RES1 0.0
60 C33	8.1715  15.6292  5.2381 C.3	1 RES1 0.0
61 H27	8.7773  15.6255  4.4578 H	1 RES1 0.0
62 H28	7.7943  14.7168  5.315 H	1 RES1 0.0
63 C34	7.0348  16.5564  4.9144 C.ar	1 RES1 0.0
64 C35	5.8227  16.3343  5.5602 C.ar	1 RES1 0.0
65 H29	5.7299  15.5996  6.1547 H	1 RES1 0.0
66 C36	4.7488  17.1875  5.3359 C.ar	1 RES1 0.0
67 H30	3.921  17.0357  5.7765 H	1 RES1 0.0
68 C37	4.8848  18.2627  4.4658 C.ar	1 RES1 0.0
69 H31	4.1521  18.8457  4.312 H	1 RES1 0.0
70 C38	6.0962  18.4848  3.8216 C.ar	1 RES1 0.0
71 H32	6.189  19.2214  3.2272 H	1 RES1 0.0
72 C39	7.1701  17.6335  4.046 C.ar	1 RES1 0.0
73 H33	7.9986  17.7852  3.6037 H	1 RES1 0.0
@<TRIPOS>BOND
1 1 2 1
1 1 26 1
1 1 50 1
1 2 3 ar
1 2 10 ar
1 3 4 ar
1 3 12 1
1 4 5 1
1 4 6 ar
1 6 7 1
1 6 8 ar
1 8 9 1
1 8 10 ar
1 10 11 1
1 12 13 1
1 12 14 1
1 12 15 1
1 15 16 ar
1 15 24 ar
1 16 17 1
1 16 18 ar
1 18 19 1
1 18 20 ar
1 20 21 1
1 20 22 ar
1 22 23 1
1 22 24 ar
1 24 25 1
1 26 27 ar
1 26 34 ar
1 27 28 ar
1 27 36 1
1 28 29 1
1 28 30 ar
1 30 31 1
1 30 32 ar
1 32 33 1
1 32 34 ar
1 34 35 1
1 36 37 1
1 36 38 1
1 36 39 1
1 39 40 ar
1 39 48 ar
1 40 41 1
1 40 42 ar
1 42 43 1
1 42 44 ar
1 44 45 1
1 44 46 ar
1 46 47 1
1 46 48 ar
1 48 49 1
1 50 51 ar
1 50 58 ar
1 51 52 ar
1 51 60 1
1 52 53 1
1 52 54 ar
1 54 55 1
1 54 56 ar
1 56 57 1
1 56 58 ar
1 58 59 1
1 60 61 1
1 60 62 1
1 60 63 1
1 63 64 ar
1 63 72 ar
1 64 65 1
1 64 66 ar
1 66 67 1
1 66 68 ar
1 68 69 1
1 68 70 ar
1 70 71 1
1 70 72 ar
1 72 73 1
@<TRIPOS>SUBSTRUCTURE
1 RES1 73

