@<TRIPOS>MOLECULE

88	90	1
SMALL
PartialCharges
****
Generated from molSimplify

@<TRIPOS>ATOM
1 P1	6.1033  6.1118  8.6487 P.3	1 RES1 0.0
2 C1	6.401  4.6199  9.6462 C.ar	1 RES1 0.0
3 C2	5.3942  3.7467  10.0465 C.ar	1 RES1 0.0
4 H1	4.5106  3.8728  9.7197 H	1 RES1 0.0
5 C3	5.6563  2.6921  10.917 C.ar	1 RES1 0.0
6 C4	6.9528  2.5725  11.4168 C.ar	1 RES1 0.0
7 H2	7.1405  1.8756  12.0346 H	1 RES1 0.0
8 C5	7.9827  3.4323  11.047 C.ar	1 RES1 0.0
9 C6	7.6926  4.4387  10.1319 C.ar	1 RES1 0.0
10 H3	8.3887  5.0124  9.8334 H	1 RES1 0.0
11 C7	4.5345  1.7606  11.3816 C.3	1 RES1 0.0
12 C8	3.482  1.5609  10.2698 C.3	1 RES1 0.0
13 H4	3.0636  2.4212  10.0581 H	1 RES1 0.0
14 H5	2.7975  0.9311  10.5775 H	1 RES1 0.0
15 H6	3.9181  1.2036  9.468 H	1 RES1 0.0
16 C9	5.06  0.3807  11.7827 C.3	1 RES1 0.0
17 H7	4.3075  -0.1937  12.0371 H	1 RES1 0.0
18 H8	5.6721  0.4725  12.5422 H	1 RES1 0.0
19 H9	5.5356  -0.0203  11.0258 H	1 RES1 0.0
20 C10	3.8474  2.4035  12.5983 C.3	1 RES1 0.0
21 H10	4.4925  2.4863  13.3316 H	1 RES1 0.0
22 H11	3.0976  1.8417  12.8848 H	1 RES1 0.0
23 H12	3.5152  3.2924  12.3538 H	1 RES1 0.0
24 C11	9.4048  3.331  11.6238 C.3	1 RES1 0.0
25 C12	9.5623  2.1454  12.5787 C.3	1 RES1 0.0
26 H13	8.9043  2.2192  13.3016 H	1 RES1 0.0
27 H14	10.4657  2.1485  12.9576 H	1 RES1 0.0
28 H15	9.416  1.3096  12.0884 H	1 RES1 0.0
29 C13	9.7121  4.6154  12.4038 C.3	1 RES1 0.0
30 H16	10.6208  4.5661  12.7692 H	1 RES1 0.0
31 H17	9.0704  4.714  13.1372 H	1 RES1 0.0
32 H18	9.6438  5.3866  11.8032 H	1 RES1 0.0
33 C14	10.4116  3.1489  10.4802 C.3	1 RES1 0.0
34 H19	11.3089  3.0163  10.8526 H	1 RES1 0.0
35 H20	10.4091  3.9474  9.9121 H	1 RES1 0.0
36 H21	10.1616  2.3667  9.9457 H	1 RES1 0.0
37 C15	4.4905  5.8955  7.8249 C.ar	1 RES1 0.0
38 C16	4.2902  4.7545  7.07 C.ar	1 RES1 0.0
39 H22	4.9362  4.0581  7.0944 H	1 RES1 0.0
40 C17	3.1553  4.6102  6.2729 C.ar	1 RES1 0.0
41 C18	2.2203  5.6412  6.2782 C.ar	1 RES1 0.0
42 H23	1.4325  5.5478  5.7552 H	1 RES1 0.0
43 C19	2.3975  6.8067  7.0234 C.ar	1 RES1 0.0
44 C20	3.5496  6.92  7.788 C.ar	1 RES1 0.0
45 H24	3.699  7.7099  8.2944 H	1 RES1 0.0
46 C21	3.0134  3.3391  5.4112 C.3	1 RES1 0.0
47 C22	2.9358  2.1234  6.3199 C.3	1 RES1 0.0
48 H25	2.1178  2.1691  6.8577 H	1 RES1 0.0
49 H26	3.716  2.1089  6.9135 H	1 RES1 0.0
50 H27	2.9244  1.3087  5.7759 H	1 RES1 0.0
51 C23	1.8255  3.399  4.4817 C.3	1 RES1 0.0
52 H28	1.0027  3.4805  5.007 H	1 RES1 0.0
53 H29	1.79  2.5806  3.9434 H	1 RES1 0.0
54 H30	1.9131  4.1752  3.8891 H	1 RES1 0.0
55 C24	4.2672  3.1986  4.5218 C.3	1 RES1 0.0
56 H31	5.0665  3.1637  5.0886 H	1 RES1 0.0
57 H32	4.3279  3.9699  3.92 H	1 RES1 0.0
58 H33	4.2035  2.3761  3.995 H	1 RES1 0.0
59 C25	1.343  7.9285  6.9711 C.3	1 RES1 0.0
60 C26	0.0315  7.422  7.6269 C.3	1 RES1 0.0
61 H34	0.1993  7.2059  8.5673 H	1 RES1 0.0
62 H35	-0.2801  6.621  7.157 H	1 RES1 0.0
63 H36	-0.6529  8.1217  7.5692 H	1 RES1 0.0
64 C27	1.0426  8.2838  5.5378 C.3	1 RES1 0.0
65 H37	0.3257  8.952  5.5114 H	1 RES1 0.0
66 H38	0.7578  7.4802  5.0555 H	1 RES1 0.0
67 H39	1.8473  8.6508  5.1176 H	1 RES1 0.0
68 C28	1.7598  9.1561  7.7618 C.3	1 RES1 0.0
69 H40	1.9276  8.9024  8.6942 H	1 RES1 0.0
70 H41	1.0429  9.8241  7.7304 H	1 RES1 0.0
71 H42	2.5757  9.5335  7.3741 H	1 RES1 0.0
72 C29	5.7737  7.3772  9.9529 C.3	1 RES1 0.0
73 H43	5.5107  8.2183  9.4803 H	1 RES1 0.0
74 C30	4.6404  7.0438  10.9277 C.3	1 RES1 0.0
75 H44	3.8178  6.8274  10.4214 H	1 RES1 0.0
76 H45	4.8878  6.2521  11.4685 H	1 RES1 0.0
77 C31	4.3818  8.2309  11.8447 C.3	1 RES1 0.0
78 H46	4.0663  8.9987  11.3052 H	1 RES1 0.0
79 H47	3.6671  7.9969  12.4892 H	1 RES1 0.0
80 C32	5.6354  8.6329  12.6078 C.3	1 RES1 0.0
81 H48	5.8833  7.9098  13.2371 H	1 RES1 0.0
82 H49	5.451  9.449  13.1368 H	1 RES1 0.0
83 C33	6.7997  8.8978  11.6584 C.3	1 RES1 0.0
84 H50	7.6165  9.089  12.1841 H	1 RES1 0.0
85 H51	6.5984  9.6936  11.1049 H	1 RES1 0.0
86 C34	7.0519  7.6941  10.7464 C.3	1 RES1 0.0
87 H52	7.3111  6.9094  11.2913 H	1 RES1 0.0
88 H53	7.7926  7.8962  10.1217 H	1 RES1 0.0
@<TRIPOS>BOND
1 1 2 1
1 1 37 1
1 1 72 1
1 2 3 ar
1 2 9 ar
1 3 4 1
1 3 5 ar
1 5 6 ar
1 5 11 1
1 6 7 1
1 6 8 ar
1 8 9 ar
1 8 24 1
1 9 10 1
1 11 12 1
1 11 16 1
1 11 20 1
1 12 13 1
1 12 14 1
1 12 15 1
1 16 17 1
1 16 18 1
1 16 19 1
1 20 21 1
1 20 22 1
1 20 23 1
1 24 25 1
1 24 29 1
1 24 33 1
1 25 26 1
1 25 27 1
1 25 28 1
1 29 30 1
1 29 31 1
1 29 32 1
1 33 34 1
1 33 35 1
1 33 36 1
1 37 38 ar
1 37 44 ar
1 38 39 1
1 38 40 ar
1 40 41 ar
1 40 46 1
1 41 42 1
1 41 43 ar
1 43 44 ar
1 43 59 1
1 44 45 1
1 46 47 1
1 46 51 1
1 46 55 1
1 47 48 1
1 47 49 1
1 47 50 1
1 51 52 1
1 51 53 1
1 51 54 1
1 55 56 1
1 55 57 1
1 55 58 1
1 59 60 1
1 59 64 1
1 59 68 1
1 60 61 1
1 60 62 1
1 60 63 1
1 64 65 1
1 64 66 1
1 64 67 1
1 68 69 1
1 68 70 1
1 68 71 1
1 72 73 1
1 72 74 1
1 72 86 1
1 74 75 1
1 74 76 1
1 74 77 1
1 77 78 1
1 77 79 1
1 77 80 1
1 80 81 1
1 80 82 1
1 80 83 1
1 83 84 1
1 83 85 1
1 83 86 1
1 86 87 1
1 86 88 1
@<TRIPOS>SUBSTRUCTURE
1 RES1 88

