@<TRIPOS>MOLECULE

46	48	1
SMALL
PartialCharges
****
Generated from molSimplify

@<TRIPOS>ATOM
1 C1	8.8344  3.8759  2.7216 C.ar	1 RES1 0.0
2 C2	8.1802  5.0878  2.5772 C.ar	1 RES1 0.0
3 H1	8.6317  5.8951  2.7922 H	1 RES1 0.0
4 C3	6.8803  5.1318  2.1255 C.ar	1 RES1 0.0
5 H2	6.4399  5.9688  2.0276 H	1 RES1 0.0
6 C4	6.2197  3.9701  1.8176 C.ar	1 RES1 0.0
7 H3	5.3171  4.001  1.5224 H	1 RES1 0.0
8 C5	6.8626  2.7621  1.936 C.ar	1 RES1 0.0
9 H4	6.4134  1.9595  1.6994 H	1 RES1 0.0
10 C6	8.1622  2.7145  2.3978 C.ar	1 RES1 0.0
11 H5	8.5982  1.8763  2.4932 H	1 RES1 0.0
12 C7	11.1992  2.2508  3.1269 C.3	1 RES1 0.0
13 H6	10.5093  1.5647  3.3558 H	1 RES1 0.0
14 C8	11.5519  2.0831  1.6552 C.3	1 RES1 0.0
15 H7	10.7379  2.2056  1.1048 H	1 RES1 0.0
16 H8	12.2069  2.7763  1.3918 H	1 RES1 0.0
17 C9	12.1364  0.7075  1.3942 C.3	1 RES1 0.0
18 H9	11.4439  0.0214  1.5602 H	1 RES1 0.0
19 H10	12.4101  0.6433  0.445 H	1 RES1 0.0
20 C10	13.3335  0.434  2.2776 C.3	1 RES1 0.0
21 H11	13.6502  -0.4923  2.1238 H	1 RES1 0.0
22 H12	14.0673  1.0523  2.0396 H	1 RES1 0.0
23 C11	12.9814  0.6088  3.7331 C.3	1 RES1 0.0
24 H13	13.7902  0.4708  4.2871 H	1 RES1 0.0
25 H14	12.3121  -0.0725  3.995 H	1 RES1 0.0
26 C12	12.421  1.9916  3.9969 C.3	1 RES1 0.0
27 H15	13.1148  2.6705  3.8042 H	1 RES1 0.0
28 H16	12.17  2.0701  4.952 H	1 RES1 0.0
29 C13	10.079  3.8562  5.2452 C.3	1 RES1 0.0
30 H17	10.9481  3.7668  5.7304 H	1 RES1 0.0
31 C14	9.235  2.6681  5.6543 C.3	1 RES1 0.0
32 H18	9.6826  1.8323  5.3679 H	1 RES1 0.0
33 H19	8.356  2.7157  5.2012 H	1 RES1 0.0
34 C15	9.0288  2.642  7.1542 C.3	1 RES1 0.0
35 H20	8.4223  1.8941  7.3885 H	1 RES1 0.0
36 H21	9.8971  2.4827  7.6016 H	1 RES1 0.0
37 C16	8.4393  3.9356  7.6562 C.3	1 RES1 0.0
38 H22	8.3874  3.9107  8.6446 H	1 RES1 0.0
39 H23	7.5192  4.0355  7.3043 H	1 RES1 0.0
40 C17	9.2719  5.1234  7.226 C.3	1 RES1 0.0
41 H24	10.1589  5.0771  7.6617 H	1 RES1 0.0
42 H25	8.8297  5.9581  7.5191 H	1 RES1 0.0
43 C18	9.4507  5.1508  5.7222 C.3	1 RES1 0.0
44 H26	10.0294  5.9141  5.471 H	1 RES1 0.0
45 H27	8.5709  5.2744  5.2854 H	1 RES1 0.0
46 P1	10.4831  3.8925  3.4589 P.3	1 RES1 0.0
@<TRIPOS>BOND
1 1 2 ar
1 1 10 ar
1 1 46 1
1 2 3 1
1 2 4 ar
1 4 5 1
1 4 6 ar
1 6 7 1
1 6 8 ar
1 8 9 1
1 8 10 ar
1 10 11 1
1 12 13 1
1 12 14 1
1 12 26 1
1 12 46 1
1 14 15 1
1 14 16 1
1 14 17 1
1 17 18 1
1 17 19 1
1 17 20 1
1 20 21 1
1 20 22 1
1 20 23 1
1 23 24 1
1 23 25 1
1 23 26 1
1 26 27 1
1 26 28 1
1 29 30 1
1 29 31 1
1 29 43 1
1 29 46 1
1 31 32 1
1 31 33 1
1 31 34 1
1 34 35 1
1 34 36 1
1 34 37 1
1 37 38 1
1 37 39 1
1 37 40 1
1 40 41 1
1 40 42 1
1 40 43 1
1 43 44 1
1 43 45 1
@<TRIPOS>SUBSTRUCTURE
1 RES1 46

