@<TRIPOS>MOLECULE

43	45	1
SMALL
PartialCharges
****
Generated from molSimplify

@<TRIPOS>ATOM
1 C1	-2.2908  3.8229  2.0122 C.ar	1 RES1 0.0
2 C2	-2.1208  2.5152  1.5725 C.ar	1 RES1 0.0
3 H1	-1.4169  1.9858  1.9278 H	1 RES1 0.0
4 C3	-2.9737  1.976  0.6187 C.ar	1 RES1 0.0
5 H2	-2.8508  1.0825  0.3199 H	1 RES1 0.0
6 C4	-4.0048  2.7443  0.103 C.ar	1 RES1 0.0
7 C5	-4.21  4.0443  0.5538 C.ar	1 RES1 0.0
8 H3	-4.9362  4.5573  0.2202 H	1 RES1 0.0
9 C6	-3.3466  4.5875  1.4946 C.ar	1 RES1 0.0
10 H4	-3.4707  5.4814  1.7893 H	1 RES1 0.0
11 C7	-4.8973  2.1548  -0.9503 C.3	1 RES1 0.0
12 C8	-1.9942  4.9148  4.7404 C.ar	1 RES1 0.0
13 C9	-3.3756  5.0632  4.8049 C.ar	1 RES1 0.0
14 H5	-3.9047  4.9114  4.0302 H	1 RES1 0.0
15 C10	-3.9865  5.434  6.0009 C.ar	1 RES1 0.0
16 H6	-4.9309  5.5259  6.0508 H	1 RES1 0.0
17 C11	-3.2019  5.6679  7.1157 C.ar	1 RES1 0.0
18 C12	-1.8283  5.5117  7.0657 C.ar	1 RES1 0.0
19 H7	-1.3024  5.6705  7.8401 H	1 RES1 0.0
20 C13	-1.2237  5.1228  5.8799 C.ar	1 RES1 0.0
21 H8	-0.2818  4.9979  5.8458 H	1 RES1 0.0
22 C14	-3.8298  6.0803  8.4204 C.3	1 RES1 0.0
23 C15	-0.7696  6.1978  2.5062 C.ar	1 RES1 0.0
24 C16	-0.6135  6.3764  1.1332 C.ar	1 RES1 0.0
25 H9	-0.763  5.6465  0.5429 H	1 RES1 0.0
26 C17	-0.2429  7.6118  0.6202 C.ar	1 RES1 0.0
27 H10	-0.1414  7.7293  -0.3172 H	1 RES1 0.0
28 C18	-0.0201  8.6751  1.4866 C.ar	1 RES1 0.0
29 C19	-0.1865  8.5146  2.856 C.ar	1 RES1 0.0
30 H11	-0.0489  9.2484  3.443 H	1 RES1 0.0
31 C20	-0.5538  7.2764  3.364 C.ar	1 RES1 0.0
32 H12	-0.6588  7.1628  4.3016 H	1 RES1 0.0
33 C21	0.4523  9.9996  0.9876 C.3	1 RES1 0.0
34 F1	-4.2462  1.31  -1.7475 F	1 RES1 0.0
35 F2	-5.9169  1.4603  -0.4105 F	1 RES1 0.0
36 F3	-5.4554  3.082  -1.7277 F	1 RES1 0.0
37 F4	-3.092  6.9672  9.084 F	1 RES1 0.0
38 F5	-4.0018  5.0361  9.2392 F	1 RES1 0.0
39 F6	-5.0324  6.6293  8.2488 F	1 RES1 0.0
40 F7	0.2406  10.1664  -0.3274 F	1 RES1 0.0
41 F8	-0.1484  11.0252  1.6045 F	1 RES1 0.0
42 F9	1.7661  10.1754  1.1879 F	1 RES1 0.0
43 P1	-1.0982  4.5346  3.1919 P.3	1 RES1 0.0
@<TRIPOS>BOND
1 1 2 ar
1 1 9 ar
1 1 43 1
1 2 3 1
1 2 4 ar
1 4 5 1
1 4 6 ar
1 6 7 ar
1 6 11 1
1 7 8 1
1 7 9 ar
1 9 10 1
1 11 34 1
1 11 35 1
1 11 36 1
1 12 13 ar
1 12 20 ar
1 12 43 1
1 13 14 1
1 13 15 ar
1 15 16 1
1 15 17 ar
1 17 18 ar
1 17 22 1
1 18 19 1
1 18 20 ar
1 20 21 1
1 22 37 1
1 22 38 1
1 22 39 1
1 23 24 ar
1 23 31 ar
1 23 43 1
1 24 25 1
1 24 26 ar
1 26 27 1
1 26 28 ar
1 28 29 ar
1 28 33 1
1 29 30 1
1 29 31 ar
1 31 32 1
1 33 40 1
1 33 41 1
1 33 42 1
@<TRIPOS>SUBSTRUCTURE
1 RES1 43

