@<TRIPOS>MOLECULE

58	60	1
SMALL
PartialCharges
****
Generated from molSimplify

@<TRIPOS>ATOM
1 P1	-1.154  5.1699  12.2875 P.3	1 RES1 0.0
2 C1	-2.9569  4.5561  12.4714 C.3	1 RES1 0.0
3 C2	-4.006  5.5778  12.9255 C.3	1 RES1 0.0
4 C3	-2.9252  3.4361  13.5335 C.3	1 RES1 0.0
5 C4	-3.417  3.9577  11.134 C.3	1 RES1 0.0
6 C5	-0.8669  6.5921  13.5184 C.3	1 RES1 0.0
7 C6	-1.7308  7.8713  13.3829 C.3	1 RES1 0.0
8 C7	-1.0458  6.0428  14.9445 C.3	1 RES1 0.0
9 C8	0.5869  7.0585  13.3032 C.3	1 RES1 0.0
10 C9	-1.0409  5.9025  10.6001 C.3	1 RES1 0.0
11 C10	-2.0009  7.0375  10.2486 C.3	1 RES1 0.0
12 C11	-0.8388  4.9048  9.4705 C.3	1 RES1 0.0
13 C12	0.2887  5.8521  9.7748 C.3	1 RES1 0.0
14 C13	0.5288  6.9946  8.802 C.ar	1 RES1 0.0
15 C14	0.626  8.3245  9.2227 C.ar	1 RES1 0.0
16 C15	0.8982  9.3382  8.3036 C.ar	1 RES1 0.0
17 C16	1.089  9.0401  6.9667 C.ar	1 RES1 0.0
18 C17	1.0152  7.7209  6.5432 C.ar	1 RES1 0.0
19 C18	0.7295  6.7121  7.455 C.ar	1 RES1 0.0
20 C19	1.6088  5.2795  10.2595 C.ar	1 RES1 0.0
21 C20	2.6099  6.1215  10.7466 C.ar	1 RES1 0.0
22 C21	3.8911  5.6509  11.0204 C.ar	1 RES1 0.0
23 C22	4.1972  4.322  10.8079 C.ar	1 RES1 0.0
24 C23	3.2219  3.4637  10.3312 C.ar	1 RES1 0.0
25 C24	1.9365  3.9329  10.0599 C.ar	1 RES1 0.0
26 H1	-4.871  5.1307  13.0347 H	1 RES1 0.0
27 H2	-4.0855  6.2843  12.2511 H	1 RES1 0.0
28 H3	-3.7303  5.9697  13.7799 H	1 RES1 0.0
29 H4	-2.4875  2.6426  13.1586 H	1 RES1 0.0
30 H5	-3.842  3.2098  13.7961 H	1 RES1 0.0
31 H6	-2.427  3.7438  14.3185 H	1 RES1 0.0
32 H7	-2.799  3.247  10.8654 H	1 RES1 0.0
33 H8	-3.4257  4.6587  10.4493 H	1 RES1 0.0
34 H9	-4.3177  3.5879  11.2343 H	1 RES1 0.0
35 H10	-1.4367  8.5364  14.0396 H	1 RES1 0.0
36 H11	-2.6724  7.6477  13.5423 H	1 RES1 0.0
37 H12	-1.6322  8.2384  12.4798 H	1 RES1 0.0
38 H13	-0.8355  6.7466  15.5935 H	1 RES1 0.0
39 H14	-0.443  5.2825  15.08 H	1 RES1 0.0
40 H15	-1.9731  5.7517  15.0682 H	1 RES1 0.0
41 H16	0.676  7.449  12.409 H	1 RES1 0.0
42 H17	1.1915  6.2926  13.3874 H	1 RES1 0.0
43 H18	0.8178  7.7319  13.9776 H	1 RES1 0.0
44 H19	-1.6204  7.8906  10.5467 H	1 RES1 0.0
45 H20	-2.8605  6.8888  10.6942 H	1 RES1 0.0
46 H21	-2.1357  7.0626  9.2776 H	1 RES1 0.0
47 H22	-0.7161  3.9536  9.7159 H	1 RES1 0.0
48 H23	-1.3471  5.052  8.6342 H	1 RES1 0.0
49 H24	0.5067  8.5392  10.1409 H	1 RES1 0.0
50 H25	0.9543  10.2407  8.5973 H	1 RES1 0.0
51 H26	1.2692  9.7342  6.3425 H	1 RES1 0.0
52 H27	1.1607  7.5056  5.6297 H	1 RES1 0.0
53 H28	0.6697  5.8138  7.1526 H	1 RES1 0.0
54 H29	2.4117  7.0392  10.8949 H	1 RES1 0.0
55 H30	4.5554  6.2443  11.3539 H	1 RES1 0.0
56 H31	5.0718  3.9977  10.9879 H	1 RES1 0.0
57 H32	3.4299  2.5474  10.1866 H	1 RES1 0.0
58 H33	1.2758  3.3326  9.7351 H	1 RES1 0.0
@<TRIPOS>BOND
1 1 2 1
1 1 6 1
1 1 10 1
1 2 3 1
1 2 4 1
1 2 5 1
1 3 26 1
1 3 27 1
1 3 28 1
1 4 29 1
1 4 30 1
1 4 31 1
1 5 32 1
1 5 33 1
1 5 34 1
1 6 7 1
1 6 8 1
1 6 9 1
1 7 35 1
1 7 36 1
1 7 37 1
1 8 38 1
1 8 39 1
1 8 40 1
1 9 41 1
1 9 42 1
1 9 43 1
1 10 11 1
1 10 12 1
1 10 13 1
1 11 44 1
1 11 45 1
1 11 46 1
1 12 13 1
1 12 47 1
1 12 48 1
1 13 14 1
1 13 20 1
1 14 15 ar
1 14 19 ar
1 15 16 ar
1 15 49 1
1 16 17 ar
1 16 50 1
1 17 18 ar
1 17 51 1
1 18 19 ar
1 18 52 1
1 19 53 1
1 20 21 ar
1 20 25 ar
1 21 22 ar
1 21 54 1
1 22 23 ar
1 22 55 1
1 23 24 ar
1 23 56 1
1 24 25 ar
1 24 57 1
1 25 58 1
@<TRIPOS>SUBSTRUCTURE
1 RES1 58

