@<TRIPOS>MOLECULE

46	48	1
SMALL
PartialCharges
****
Generated from molSimplify

@<TRIPOS>ATOM
1 P1	11.3762  9.8072  14.3047 P.3	1 RES1 0.0
2 O1	8.6253  8.4425  14.3539 O.3	1 RES1 0.0
3 O2	12.4372  12.5054  13.7626 O.3	1 RES1 0.0
4 O3	10.3657  8.5618  16.8945 O.3	1 RES1 0.0
5 C1	9.7596  10.4558  14.8735 C.ar	1 RES1 0.0
6 C2	8.5478  9.747  14.7906 C.ar	1 RES1 0.0
7 C3	13.1335  10.2124  16.4625 C.ar	1 RES1 0.0
8 H1	12.8368  9.3865  16.7715 H	1 RES1 0.0
9 C4	7.3568  10.3348  15.1747 C.ar	1 RES1 0.0
10 H2	6.5591  9.8647  15.0875 H	1 RES1 0.0
11 C5	7.3486  11.6123  15.6879 C.ar	1 RES1 0.0
12 H3	6.5451  11.9999  15.9511 H	1 RES1 0.0
13 C6	9.7044  11.7401  15.3979 C.ar	1 RES1 0.0
14 H4	10.4924  12.2269  15.4742 H	1 RES1 0.0
15 C7	11.556  8.0947  14.9229 C.ar	1 RES1 0.0
16 C8	14.0543  12.6511  15.5445 C.ar	1 RES1 0.0
17 H5	14.3739  13.466  15.2297 H	1 RES1 0.0
18 C9	8.521  12.3196  15.8107 C.ar	1 RES1 0.0
19 H6	8.5172  13.1782  16.1684 H	1 RES1 0.0
20 C10	12.3087  7.2204  14.1515 C.ar	1 RES1 0.0
21 H7	12.6775  7.5213  13.3517 H	1 RES1 0.0
22 C11	11.0087  7.6328  16.1199 C.ar	1 RES1 0.0
23 C12	12.58  10.7491  15.307 C.ar	1 RES1 0.0
24 C13	13.0524  11.9924  14.8623 C.ar	1 RES1 0.0
25 C14	14.1276  10.8918  17.167 C.ar	1 RES1 0.0
26 H8	14.4786  10.5294  17.9475 H	1 RES1 0.0
27 C15	14.5839  12.0969  16.7032 C.ar	1 RES1 0.0
28 H9	15.2529  12.5461  17.1661 H	1 RES1 0.0
29 C16	13.2072  13.3897  12.9418 C.3	1 RES1 0.0
30 H10	12.7895  13.4709  12.0809 H	1 RES1 0.0
31 H11	14.0933  13.0361  12.8349 H	1 RES1 0.0
32 H12	13.2545  14.2531  13.3574 H	1 RES1 0.0
33 C17	12.5248  5.9084  14.5468 C.ar	1 RES1 0.0
34 H13	13.036  5.3323  14.0263 H	1 RES1 0.0
35 C18	11.1922  6.3167  16.5087 C.ar	1 RES1 0.0
36 H14	10.8011  5.9994  17.2911 H	1 RES1 0.0
37 C19	7.4  7.75  14.1706 C.3	1 RES1 0.0
38 H15	6.8718  8.2029  13.5094 H	1 RES1 0.0
39 H16	6.9193  7.7244  15.0015 H	1 RES1 0.0
40 H17	7.5796  6.8535  13.8777 H	1 RES1 0.0
41 C20	9.3541  8.13  17.7902 C.3	1 RES1 0.0
42 H18	8.7549  7.5352  17.3341 H	1 RES1 0.0
43 H19	8.8667  8.8909  18.1135 H	1 RES1 0.0
44 H20	9.7584  7.6709  18.531 H	1 RES1 0.0
45 C21	11.9642  5.476  15.7246 C.ar	1 RES1 0.0
46 H21	12.1079  4.6004  16.0022 H	1 RES1 0.0
@<TRIPOS>BOND
1 1 5 1
1 1 15 1
1 1 23 1
1 2 6 1
1 2 37 1
1 3 24 1
1 3 29 1
1 4 22 1
1 4 41 1
1 5 6 ar
1 5 13 ar
1 6 9 ar
1 7 8 1
1 7 23 ar
1 7 25 ar
1 9 10 1
1 9 11 ar
1 11 12 1
1 11 18 ar
1 13 14 1
1 13 18 ar
1 15 20 ar
1 15 22 ar
1 16 17 1
1 16 24 ar
1 16 27 ar
1 18 19 1
1 20 21 1
1 20 33 ar
1 22 35 ar
1 23 24 ar
1 25 26 1
1 25 27 ar
1 27 28 1
1 29 30 1
1 29 31 1
1 29 32 1
1 33 34 1
1 33 45 ar
1 35 36 1
1 35 45 ar
1 37 38 1
1 37 39 1
1 37 40 1
1 41 42 1
1 41 43 1
1 41 44 1
1 45 46 1
@<TRIPOS>SUBSTRUCTURE
1 RES1 46

