@<TRIPOS>MOLECULE

40	41	1
SMALL
PartialCharges
****
Generated from molSimplify

@<TRIPOS>ATOM
1 P1	6.622  -0.0373  10.6917 P.3	1 RES1 0.0
2 O1	7.9305  0.5619  9.979 O.3	1 RES1 0.0
3 C1	9.0638  1.0337  10.7462 C.3	1 RES1 0.0
4 H1	9.0035  2.0055  10.8545 H	1 RES1 0.0
5 H2	9.8934  0.8074  10.2768 H	1 RES1 0.0
6 H3	9.0611  0.6061  11.6287 H	1 RES1 0.0
7 C2	5.7523  1.3151  11.5599 C.3	1 RES1 0.0
8 H4	4.7894  1.0452  11.5923 H	1 RES1 0.0
9 C3	6.2077  1.4191  13.0186 C.3	1 RES1 0.0
10 H5	6.0964  0.5406  13.464 H	1 RES1 0.0
11 H6	7.1664  1.661  13.0516 H	1 RES1 0.0
12 C4	5.3855  2.4744  13.7564 C.3	1 RES1 0.0
13 H7	4.4418  2.1789  13.8005 H	1 RES1 0.0
14 H8	5.7219  2.5583  14.6836 H	1 RES1 0.0
15 C5	5.4527  3.8253  13.0776 C.3	1 RES1 0.0
16 H9	6.3851  4.1582  13.0911 H	1 RES1 0.0
17 H10	4.8857  4.4718  13.5665 H	1 RES1 0.0
18 C6	4.9728  3.7017  11.6456 C.3	1 RES1 0.0
19 H11	5.0545  4.5804  11.1963 H	1 RES1 0.0
20 H12	4.018  3.4429  11.6404 H	1 RES1 0.0
21 C7	5.7789  2.6699  10.8783 C.3	1 RES1 0.0
22 H13	5.4095  2.5819  9.9639 H	1 RES1 0.0
23 H14	6.7156  2.9778  10.8012 H	1 RES1 0.0
24 C8	5.4402  -0.3367  9.303 C.3	1 RES1 0.0
25 H15	4.5164  -0.3363  9.6858 H	1 RES1 0.0
26 C9	5.7091  -1.7351  8.7381 C.3	1 RES1 0.0
27 H16	5.554  -2.409  9.4462 H	1 RES1 0.0
28 H17	6.6565  -1.7986  8.4582 H	1 RES1 0.0
29 C10	4.8023  -2.0454  7.5366 C.3	1 RES1 0.0
30 H18	5.0538  -2.9242  7.1561 H	1 RES1 0.0
31 H19	3.8633  -2.1009  7.8409 H	1 RES1 0.0
32 C11	4.9177  -0.9868  6.4629 C.3	1 RES1 0.0
33 H20	5.8399  -0.9812  6.1026 H	1 RES1 0.0
34 H21	4.3001  -1.2035  5.7197 H	1 RES1 0.0
35 C12	4.5857  0.3738  7.0082 C.3	1 RES1 0.0
36 H22	3.6373  0.39  7.2923 H	1 RES1 0.0
37 H23	4.7045  1.0504  6.2969 H	1 RES1 0.0
38 C13	5.485  0.7286  8.2083 C.3	1 RES1 0.0
39 H24	6.4181  0.8321  7.8951 H	1 RES1 0.0
40 H25	5.1932  1.5952  8.587 H	1 RES1 0.0
@<TRIPOS>BOND
1 1 2 1
1 1 7 1
1 1 24 1
1 2 3 1
1 3 4 1
1 3 5 1
1 3 6 1
1 7 8 1
1 7 9 1
1 7 21 1
1 9 10 1
1 9 11 1
1 9 12 1
1 12 13 1
1 12 14 1
1 12 15 1
1 15 16 1
1 15 17 1
1 15 18 1
1 18 19 1
1 18 20 1
1 18 21 1
1 21 22 1
1 21 23 1
1 24 25 1
1 24 26 1
1 24 38 1
1 26 27 1
1 26 28 1
1 26 29 1
1 29 30 1
1 29 31 1
1 29 32 1
1 32 33 1
1 32 34 1
1 32 35 1
1 35 36 1
1 35 37 1
1 35 38 1
1 38 39 1
1 38 40 1
@<TRIPOS>SUBSTRUCTURE
1 RES1 40

