@<TRIPOS>MOLECULE

44	46	1
SMALL
PartialCharges
****
Generated from molSimplify

@<TRIPOS>ATOM
1 P1	5.5245  2.7496  3.7503 P.3	1 RES1 0.0
2 C1	7.1083  2.4557  4.7019 C.3	1 RES1 0.0
3 C2	8.2371  3.3698  4.2919 C.3	1 RES1 0.0
4 C3	9.5325  3.0432  5.0038 C.3	1 RES1 0.0
5 C4	9.3661  2.9881  6.4995 C.3	1 RES1 0.0
6 C5	8.2236  2.1157  6.926 C.3	1 RES1 0.0
7 C6	6.9396  2.4534  6.2006 C.3	1 RES1 0.0
8 C7	4.4893  1.277  4.2033 C.3	1 RES1 0.0
9 C8	3.5332  1.5529  5.3522 C.3	1 RES1 0.0
10 C9	2.5648  0.4231  5.5909 C.3	1 RES1 0.0
11 C10	3.2584  -0.9014  5.7336 C.3	1 RES1 0.0
12 C11	4.1653  -1.1825  4.5577 C.3	1 RES1 0.0
13 C12	5.1687  -0.0672  4.3565 C.3	1 RES1 0.0
14 C13	6.1021  2.405  1.9928 C.3	1 RES1 0.0
15 C14	6.3549  3.7466  1.2765 C.3	1 RES1 0.0
16 C15	6.3221  3.4489  -0.2448 C.3	1 RES1 0.0
17 C16	7.3981  2.394  -0.6007 C.3	1 RES1 0.0
18 C17	7.1375  1.0028  0.2162 C.3	1 RES1 0.0
19 C18	7.0704  1.2752  1.718 C.3	1 RES1 0.0
20 H1	7.3846  1.5239  4.4661 H	1 RES1 0.0
21 H2	7.9807  4.3089  4.5202 H	1 RES1 0.0
22 H3	8.3721  3.2921  3.3038 H	1 RES1 0.0
23 H4	10.2242  3.7272  4.7725 H	1 RES1 0.0
24 H5	9.8375  2.1447  4.6959 H	1 RES1 0.0
25 H6	10.2088  2.6519  6.92 H	1 RES1 0.0
26 H7	9.1785  3.9156  6.8223 H	1 RES1 0.0
27 H8	8.0749  2.1998  7.9111 H	1 RES1 0.0
28 H9	8.4592  1.1709  6.7052 H	1 RES1 0.0
29 H10	6.667  3.375  6.477 H	1 RES1 0.0
30 H11	6.2208  1.8045  6.4514 H	1 RES1 0.0
31 H12	3.942  1.137  3.3774 H	1 RES1 0.0
32 H13	4.0709  1.688  6.1841 H	1 RES1 0.0
33 H14	3.0181  2.3859  5.1494 H	1 RES1 0.0
34 H15	2.0331  0.6086  6.4184 H	1 RES1 0.0
35 H16	1.9482  0.3623  4.8055 H	1 RES1 0.0
36 H17	3.8228  -0.8695  6.558 H	1 RES1 0.0
37 H18	2.58  -1.6317  5.8222 H	1 RES1 0.0
38 H19	4.6428  -2.0491  4.7019 H	1 RES1 0.0
39 H20	3.5996  -1.2434  3.7363 H	1 RES1 0.0
40 H21	5.7634  -0.029  5.1599 H	1 RES1 0.0
41 H22	5.72  -0.2493  3.5426 H	1 RES1 0.0
42 H23	6.9386  4.3138  1.8561 H	1 RES1 0.0
43 H24	5.4759  4.2045  1.1383 H	1 RES1 0.0
44 H25	7.9302  3.1591  0.0315 H	1 RES1 0.0
@<TRIPOS>BOND
1 1 2 1
1 1 8 1
1 1 14 1
1 2 3 1
1 2 7 1
1 2 20 1
1 3 4 1
1 3 21 1
1 3 22 1
1 4 5 1
1 4 23 1
1 4 24 1
1 5 6 1
1 5 25 1
1 5 26 1
1 6 7 1
1 6 27 1
1 6 28 1
1 7 29 1
1 7 30 1
1 8 9 1
1 8 13 1
1 8 31 1
1 9 10 1
1 9 32 1
1 9 33 1
1 10 11 1
1 10 34 1
1 10 35 1
1 11 12 1
1 11 36 1
1 11 37 1
1 12 13 1
1 12 38 1
1 12 39 1
1 13 40 1
1 13 41 1
1 14 15 1
1 14 19 1
1 15 16 1
1 15 42 1
1 15 43 1
1 16 17 1
1 17 18 1
1 17 44 1
1 18 19 1
@<TRIPOS>SUBSTRUCTURE
1 RES1 44

