@<TRIPOS>MOLECULE

56	59	1
SMALL
PartialCharges
****
Generated from molSimplify

@<TRIPOS>ATOM
1 P1	8.2805  4.3974  2.5696 P.3	1 RES1 0.0
2 C1	7.9404  4.1088  0.7814 C.3	1 RES1 0.0
3 C2	7.2149  5.2352  0.032 C.3	1 RES1 0.0
4 C3	6.7913  4.7609  -1.3537 C.3	1 RES1 0.0
5 C4	7.9859  4.2772  -2.1462 C.3	1 RES1 0.0
6 C5	8.7537  3.1989  -1.4066 C.3	1 RES1 0.0
7 C6	9.1782  3.6839  -0.0163 C.3	1 RES1 0.0
8 C7	9.6547  5.6254  2.7483 C.3	1 RES1 0.0
9 C8	9.5683  6.9148  1.9306 C.3	1 RES1 0.0
10 C9	10.6583  7.8863  2.3488 C.3	1 RES1 0.0
11 C10	12.033  7.2716  2.2154 C.3	1 RES1 0.0
12 C11	12.1281  5.9661  3.0011 C.3	1 RES1 0.0
13 C12	11.039  4.968  2.5881 C.3	1 RES1 0.0
14 C13	6.7792  5.2259  3.253 C.ar	1 RES1 0.0
15 C14	5.4594  4.7876  3.0211 C.ar	1 RES1 0.0
16 C15	4.4135  5.4557  3.6497 C.ar	1 RES1 0.0
17 C16	4.6095  6.4926  4.5199 C.ar	1 RES1 0.0
18 C17	5.8937  6.9095  4.7727 C.ar	1 RES1 0.0
19 C18	6.9562  6.2988  4.1451 C.ar	1 RES1 0.0
20 C19	5.0724  3.6398  2.1557 C.ar	1 RES1 0.0
21 C20	5.489  2.3517  2.4171 C.ar	1 RES1 0.0
22 C21	5.0495  1.2894  1.6486 C.ar	1 RES1 0.0
23 C22	4.1745  1.4899  0.6141 C.ar	1 RES1 0.0
24 C23	3.7309  2.7646  0.3687 C.ar	1 RES1 0.0
25 C24	4.1679  3.8322  1.1157 C.ar	1 RES1 0.0
26 H1	7.3204  3.3245  0.7504 H	1 RES1 0.0
27 H2	6.4157  5.5158  0.5443 H	1 RES1 0.0
28 H3	7.8156  6.0169  -0.0554 H	1 RES1 0.0
29 H4	6.1344  4.0246  -1.2639 H	1 RES1 0.0
30 H5	6.3535  5.5051  -1.839 H	1 RES1 0.0
31 H6	8.5889  5.0415  -2.3279 H	1 RES1 0.0
32 H7	7.6767  3.9191  -3.0168 H	1 RES1 0.0
33 H8	9.5569  2.9503  -1.9282 H	1 RES1 0.0
34 H9	8.185  2.3931  -1.3162 H	1 RES1 0.0
35 H10	9.798  4.4509  -0.1046 H	1 RES1 0.0
36 H11	9.651  2.957  0.4613 H	1 RES1 0.0
37 H12	9.6163  5.9194  3.7026 H	1 RES1 0.0
38 H13	9.6655  6.7037  0.9687 H	1 RES1 0.0
39 H14	8.6826  7.3344  2.0665 H	1 RES1 0.0
40 H15	10.6059  8.6987  1.7867 H	1 RES1 0.0
41 H16	10.5108  8.1575  3.2905 H	1 RES1 0.0
42 H17	12.7119  7.909  2.5524 H	1 RES1 0.0
43 H18	12.2229  7.0966  1.2608 H	1 RES1 0.0
44 H19	12.0426  6.1599  3.967 H	1 RES1 0.0
45 H20	13.0183  5.5586  2.8476 H	1 RES1 0.0
46 H21	11.1735  4.6954  1.6452 H	1 RES1 0.0
47 H22	11.0924  4.1583  3.1552 H	1 RES1 0.0
48 H23	3.5232  5.1791  3.4658 H	1 RES1 0.0
49 H24	3.8719  6.9175  4.9419 H	1 RES1 0.0
50 H25	6.0487  7.6217  5.3816 H	1 RES1 0.0
51 H26	7.8362  6.6102  4.3207 H	1 RES1 0.0
52 H27	6.0871  2.1914  3.1367 H	1 RES1 0.0
53 H28	5.3561  0.4102  1.8421 H	1 RES1 0.0
54 H29	3.8812  0.763  0.0769 H	1 RES1 0.0
55 H30	3.108  2.9129  -0.3321 H	1 RES1 0.0
56 H31	3.8505  4.7061  0.9226 H	1 RES1 0.0
@<TRIPOS>BOND
1 1 2 1
1 1 8 1
1 1 14 1
1 2 3 1
1 2 7 1
1 2 26 1
1 3 4 1
1 3 27 1
1 3 28 1
1 4 5 1
1 4 29 1
1 4 30 1
1 5 6 1
1 5 31 1
1 5 32 1
1 6 7 1
1 6 33 1
1 6 34 1
1 7 35 1
1 7 36 1
1 8 9 1
1 8 13 1
1 8 37 1
1 9 10 1
1 9 38 1
1 9 39 1
1 10 11 1
1 10 40 1
1 10 41 1
1 11 12 1
1 11 42 1
1 11 43 1
1 12 13 1
1 12 44 1
1 12 45 1
1 13 46 1
1 13 47 1
1 14 15 ar
1 14 19 ar
1 15 16 ar
1 15 20 1
1 16 17 ar
1 16 48 1
1 17 18 ar
1 17 49 1
1 18 19 ar
1 18 50 1
1 19 51 1
1 20 21 ar
1 20 25 ar
1 21 22 ar
1 21 52 1
1 22 23 ar
1 22 53 1
1 23 24 ar
1 23 54 1
1 24 25 ar
1 24 55 1
1 25 56 1
@<TRIPOS>SUBSTRUCTURE
1 RES1 56

