@<TRIPOS>MOLECULE

76	84	1
SMALL
PartialCharges
****
Generated from molSimplify

@<TRIPOS>ATOM
1 P1	3.9199  11.6314  4.9088 P.3	1 RES1 0.0
2 C1	6.0569  9.8094  5.3528 C.3	1 RES1 0.0
3 H1	5.4439  9.0497  5.186 H	1 RES1 0.0
4 H2	6.4051  10.1213  4.4806 H	1 RES1 0.0
5 C2	5.2809  10.962  6.0458 C.3	1 RES1 0.0
6 C3	7.2297  9.3415  6.2392 C.3	1 RES1 0.0
7 H3	7.7085  8.5911  5.784 H	1 RES1 0.0
8 C4	6.3011  12.1083  6.287 C.3	1 RES1 0.0
9 H4	6.6581  12.4193  5.4177 H	1 RES1 0.0
10 H5	5.8429  12.8707  6.721 H	1 RES1 0.0
11 C5	4.7674  10.4734  7.4193 C.3	1 RES1 0.0
12 H6	4.2962  11.2125  7.8795 H	1 RES1 0.0
13 H7	4.1249  9.7321  7.29 H	1 RES1 0.0
14 C6	5.9474  9.9911  8.287 C.3	1 RES1 0.0
15 H8	5.598  9.6664  9.1657 H	1 RES1 0.0
16 C7	6.6841  8.8492  7.5881 C.3	1 RES1 0.0
17 H9	6.0651  8.09  7.4416 H	1 RES1 0.0
18 H10	7.4304  8.5343  8.1572 H	1 RES1 0.0
19 C8	6.911  11.1559  8.5287 C.3	1 RES1 0.0
20 H11	7.6561  10.8624  9.1095 H	1 RES1 0.0
21 H12	6.4372  11.8968  8.9817 H	1 RES1 0.0
22 C9	2.8856  10.1985  4.1844 C.3	1 RES1 0.0
23 C10	1.5425  10.6852  3.5678 C.3	1 RES1 0.0
24 H13	0.9894  11.1059  4.2728 H	1 RES1 0.0
25 H14	1.7263  11.3689  2.8758 H	1 RES1 0.0
26 C11	0.7671  9.5101  2.938 C.3	1 RES1 0.0
27 H15	-0.0984  9.8476  2.5691 H	1 RES1 0.0
28 C12	1.5875  8.8849  1.8044 C.3	1 RES1 0.0
29 H16	1.7477  9.5544  1.0938 H	1 RES1 0.0
30 H17	1.094  8.1219  1.4106 H	1 RES1 0.0
31 C13	2.9249  8.4026  2.3814 C.3	1 RES1 0.0
32 H18	3.4768  8.0046  1.6492 H	1 RES1 0.0
33 C14	2.5765  9.0994  5.2219 C.3	1 RES1 0.0
34 H19	3.424  8.76  5.6051 H	1 RES1 0.0
35 H20	2.0383  9.4833  5.9594 H	1 RES1 0.0
36 C15	1.8058  7.9382  4.5759 C.3	1 RES1 0.0
37 H21	1.6222  7.2369  5.2643 H	1 RES1 0.0
38 C16	0.4803  8.4523  4.005 C.3	1 RES1 0.0
39 H22	-0.0264  7.7025  3.605 H	1 RES1 0.0
40 H23	-0.0676  8.8471  4.7294 H	1 RES1 0.0
41 C17	2.6607  7.3385  3.4494 C.3	1 RES1 0.0
42 H24	3.5206  7.0147  3.8179 H	1 RES1 0.0
43 H25	2.1876  6.5686  3.0445 H	1 RES1 0.0
44 C18	2.7713  12.8385  5.8455 C.3	1 RES1 0.0
45 C19	3.581  13.8603  6.6956 C.3	1 RES1 0.0
46 H26	4.0225  13.3897  7.445 H	1 RES1 0.0
47 H27	4.2851  14.2712  6.1349 H	1 RES1 0.0
48 C20	2.6585  14.9627  7.2534 C.3	1 RES1 0.0
49 H28	3.2054  15.6023  7.7926 H	1 RES1 0.0
50 C21	1.6077  14.3151  8.1611 C.3	1 RES1 0.0
51 H29	1.0117  15.0105  8.5371 H	1 RES1 0.0
52 H30	2.0528  13.8482  8.9119 H	1 RES1 0.0
53 C22	0.7872  13.315  7.3382 C.3	1 RES1 0.0
54 H31	0.0937  12.8956  7.9255 H	1 RES1 0.0
55 C23	1.7014  12.2128  6.7675 C.3	1 RES1 0.0
56 H32	1.1592  11.5627  6.2542 H	1 RES1 0.0
57 H33	2.1432  11.7297  7.5098 H	1 RES1 0.0
58 C24	2.0854  13.669  4.7154 C.3	1 RES1 0.0
59 H34	2.7805  14.1077  4.1621 H	1 RES1 0.0
60 H35	1.5669  13.0609  4.1314 H	1 RES1 0.0
61 C25	1.1476  14.74  5.2977 C.3	1 RES1 0.0
62 H36	0.6932  15.2255  4.5522 H	1 RES1 0.0
63 C26	1.9675  15.7278  6.1226 C.3	1 RES1 0.0
64 H37	1.3762  16.4269  6.4995 H	1 RES1 0.0
65 H38	2.6438  16.1675  5.5488 H	1 RES1 0.0
66 C27	0.0915  14.0529  6.1799 C.3	1 RES1 0.0
67 H39	-0.4294  13.4092  5.6374 H	1 RES1 0.0
68 H40	-0.5341  14.7297  6.5421 H	1 RES1 0.0
69 C28	3.6778  9.5967  2.9945 C.3	1 RES1 0.0
70 H41	3.8121  10.2919  2.3034 H	1 RES1 0.0
71 H42	4.5689  9.2985  3.3085 H	1 RES1 0.0
72 C29	7.46  11.6355  7.1748 C.3	1 RES1 0.0
73 H43	8.0882  12.398  7.3275 H	1 RES1 0.0
74 C30	8.2092  10.502  6.4668 C.3	1 RES1 0.0
75 H44	8.9694  10.1995  7.0242 H	1 RES1 0.0
76 H45	8.5648  10.8198  5.6 H	1 RES1 0.0
@<TRIPOS>BOND
1 1 5 1
1 1 22 1
1 1 44 1
1 2 3 1
1 2 4 1
1 2 5 1
1 2 6 1
1 5 8 1
1 5 11 1
1 6 7 1
1 6 16 1
1 6 74 1
1 8 9 1
1 8 10 1
1 8 72 1
1 11 12 1
1 11 13 1
1 11 14 1
1 14 15 1
1 14 16 1
1 14 19 1
1 16 17 1
1 16 18 1
1 19 20 1
1 19 21 1
1 19 72 1
1 22 23 1
1 22 33 1
1 22 69 1
1 23 24 1
1 23 25 1
1 23 26 1
1 26 27 1
1 26 28 1
1 26 38 1
1 28 29 1
1 28 30 1
1 28 31 1
1 31 32 1
1 31 41 1
1 31 69 1
1 33 34 1
1 33 35 1
1 33 36 1
1 36 37 1
1 36 38 1
1 36 41 1
1 38 39 1
1 38 40 1
1 41 42 1
1 41 43 1
1 44 45 1
1 44 55 1
1 44 58 1
1 45 46 1
1 45 47 1
1 45 48 1
1 48 49 1
1 48 50 1
1 48 63 1
1 50 51 1
1 50 52 1
1 50 53 1
1 53 54 1
1 53 55 1
1 53 66 1
1 55 56 1
1 55 57 1
1 58 59 1
1 58 60 1
1 58 61 1
1 61 62 1
1 61 63 1
1 61 66 1
1 63 64 1
1 63 65 1
1 66 67 1
1 66 68 1
1 69 70 1
1 69 71 1
1 72 73 1
1 72 74 1
1 74 75 1
1 74 76 1
@<TRIPOS>SUBSTRUCTURE
1 RES1 76

