@<TRIPOS>MOLECULE

25	24	1
SMALL
PartialCharges
****
Generated from molSimplify

@<TRIPOS>ATOM
1 P1	7.3664  13.7226  11.8911 P.3	1 RES1 0.0
2 C1	8.7145  14.2911  12.9857 C.3	1 RES1 0.0
3 H1	9.0614  15.1611  12.6658 H	1 RES1 0.0
4 H2	8.3701  14.4137  13.9057 H	1 RES1 0.0
5 C2	6.0004  14.9073  12.1192 C.3	1 RES1 0.0
6 H3	5.6218  14.8034  13.0284 H	1 RES1 0.0
7 H4	6.3474  15.8308  12.0358 H	1 RES1 0.0
8 C3	6.7491  12.201  12.6943 C.3	1 RES1 0.0
9 H5	5.9043  11.9334  12.2515 H	1 RES1 0.0
10 H6	7.4066  11.4776  12.5414 H	1 RES1 0.0
11 C4	6.4906  12.3123  14.2143 C.3	1 RES1 0.0
12 H7	7.3482  12.4503  14.6905 H	1 RES1 0.0
13 H8	5.9068  13.0919  14.398 H	1 RES1 0.0
14 C5	4.8927  14.6787  11.0736 C.3	1 RES1 0.0
15 H9	5.2638  14.7754  10.1607 H	1 RES1 0.0
16 H10	4.5231  13.7656  11.1664 H	1 RES1 0.0
17 C6	9.847  13.2476  12.9871 C.3	1 RES1 0.0
18 H11	9.5138  12.4064  13.3883 H	1 RES1 0.0
19 H12	10.1136  13.0554  12.053 H	1 RES1 0.0
20 N1	5.3452  10.1139  15.0492 N.1	1 RES1 0.0
21 N2	11.9218  14.0857  14.3334 N.1	1 RES1 0.0
22 C7	11.0151  13.7089  13.7375 C.1	1 RES1 0.0
23 C8	5.845  11.0841  14.7009 C.1	1 RES1 0.0
24 C9	3.8422  15.6703  11.2948 C.1	1 RES1 0.0
25 N3	3.0767  16.4674  11.5541 N.1	1 RES1 0.0
@<TRIPOS>BOND
1 1 2 1
1 1 5 1
1 1 8 1
1 2 3 1
1 2 4 1
1 2 17 1
1 5 6 1
1 5 7 1
1 5 14 1
1 8 9 1
1 8 10 1
1 8 11 1
1 11 12 1
1 11 13 1
1 11 23 1
1 14 15 1
1 14 16 1
1 14 24 1
1 17 18 1
1 17 19 1
1 17 22 1
1 20 23 3
1 21 22 3
1 24 25 3
@<TRIPOS>SUBSTRUCTURE
1 RES1 25

