@<TRIPOS>MOLECULE

65	67	1
SMALL
PartialCharges
****
Generated from molSimplify

@<TRIPOS>ATOM
1 N1	-6.6724  9.645  15.9315 N.pl3	1 RES1 0.0
2 N2	-8.7074  9.6648  15.2636 N.pl3	1 RES1 0.0
3 C1	-7.7606  10.4312  15.8645 C.3	1 RES1 0.0
4 C2	-8.2008  8.4112  14.966 C.2	1 RES1 0.0
5 H1	-8.6522  7.7134  14.5475 H	1 RES1 0.0
6 C3	-6.9416  8.3989  15.3947 C.2	1 RES1 0.0
7 H2	-6.3505  7.6835  15.3428 H	1 RES1 0.0
8 C4	-5.3843  10.0373  16.4826 C.ar	1 RES1 0.0
9 C5	-4.3711  10.3984  15.6064 C.ar	1 RES1 0.0
10 C6	-3.1627  10.8153  16.1639 C.ar	1 RES1 0.0
11 H3	-2.4647  11.0756  15.6061 H	1 RES1 0.0
12 C7	-2.9921  10.8467  17.5299 C.ar	1 RES1 0.0
13 H4	-2.1888  11.1459  17.8889 H	1 RES1 0.0
14 C8	-4.0014  10.4412  18.3611 C.ar	1 RES1 0.0
15 H5	-3.865  10.4591  19.2807 H	1 RES1 0.0
16 C9	-5.2254  10.0002  17.8668 C.ar	1 RES1 0.0
17 C10	-4.4859  10.2841  14.0963 C.3	1 RES1 0.0
18 H6	-5.4374  10.2167  13.87 H	1 RES1 0.0
19 C11	-3.7988  9.0017  13.6252 C.3	1 RES1 0.0
20 H7	-2.9037  8.9733  13.9694 H	1 RES1 0.0
21 H8	-3.7743  8.9868  12.666 H	1 RES1 0.0
22 H9	-4.2895  8.2401  13.9455 H	1 RES1 0.0
23 C12	-3.9083  11.4796  13.3453 C.3	1 RES1 0.0
24 H10	-2.9556  11.4931  13.4521 H	1 RES1 0.0
25 H11	-4.2814  12.2891  13.6988 H	1 RES1 0.0
26 H12	-4.1263  11.4063  12.4138 H	1 RES1 0.0
27 C13	-6.2695  9.3938  18.7923 C.3	1 RES1 0.0
28 H13	-7.1282  9.3983  18.3215 H	1 RES1 0.0
29 C14	-5.8998  7.9394  19.0837 C.3	1 RES1 0.0
30 H14	-5.9  7.4381  18.2644 H	1 RES1 0.0
31 H15	-6.5407  7.5608  19.6894 H	1 RES1 0.0
32 H16	-5.0252  7.9035  19.4795 H	1 RES1 0.0
33 C15	-6.4389  10.1674  20.0705 C.3	1 RES1 0.0
34 H17	-5.6555  10.0656  20.6154 H	1 RES1 0.0
35 H18	-7.2047  9.8352  20.5473 H	1 RES1 0.0
36 H19	-6.5695  11.0966  19.868 H	1 RES1 0.0
37 C16	-10.0151  10.1512  14.8969 C.ar	1 RES1 0.0
38 C17	-10.088  10.9381  13.7341 C.ar	1 RES1 0.0
39 C18	-11.3289  11.4901  13.4429 C.ar	1 RES1 0.0
40 H20	-11.4211  12.0512  12.7065 H	1 RES1 0.0
41 C19	-12.4153  11.2193  14.2272 C.ar	1 RES1 0.0
42 H21	-13.2325  11.6143  14.021 H	1 RES1 0.0
43 C20	-12.3341  10.3978  15.2876 C.ar	1 RES1 0.0
44 H22	-13.1004  10.2122  15.781 H	1 RES1 0.0
45 C21	-11.1232  9.8172  15.6624 C.ar	1 RES1 0.0
46 C22	-8.9551  11.0596  12.7584 C.3	1 RES1 0.0
47 H23	-8.1203  10.8751  13.2367 H	1 RES1 0.0
48 C23	-9.1232  10.0013  11.6704 C.3	1 RES1 0.0
49 H24	-9.0079  9.1289  12.053 H	1 RES1 0.0
50 H25	-8.4676  10.1404  10.9852 H	1 RES1 0.0
51 H26	-10.0019  10.0701  11.2908 H	1 RES1 0.0
52 C24	-8.8489  12.4462  12.134 C.3	1 RES1 0.0
53 H27	-9.6314  12.6198  11.6056 H	1 RES1 0.0
54 H28	-8.0691  12.4866  11.5743 H	1 RES1 0.0
55 H29	-8.7791  13.1046  12.828 H	1 RES1 0.0
56 C25	-11.0864  8.8027  16.7861 C.3	1 RES1 0.0
57 H30	-10.1658  8.7384  17.1157 H	1 RES1 0.0
58 C26	-11.4954  7.4366  16.2265 C.3	1 RES1 0.0
59 H31	-12.3612  7.5039  15.8178 H	1 RES1 0.0
60 H32	-11.526  6.7947  16.9389 H	1 RES1 0.0
61 H33	-10.8533  7.1553  15.5692 H	1 RES1 0.0
62 C27	-11.9963  9.2082  17.9644 C.3	1 RES1 0.0
63 H34	-11.8543  10.1344  18.1742 H	1 RES1 0.0
64 H35	-11.7854  8.6711  18.7321 H	1 RES1 0.0
65 H36	-12.9147  9.0721  17.7214 H	1 RES1 0.0
@<TRIPOS>BOND
1 1 3 1
1 1 6 1
1 1 8 1
1 2 3 1
1 2 4 1
1 2 37 1
1 4 5 1
1 4 6 2
1 6 7 1
1 8 9 ar
1 8 16 ar
1 9 10 ar
1 9 17 1
1 10 11 1
1 10 12 ar
1 12 13 1
1 12 14 ar
1 14 15 1
1 14 16 ar
1 16 27 1
1 17 18 1
1 17 19 1
1 17 23 1
1 19 20 1
1 19 21 1
1 19 22 1
1 23 24 1
1 23 25 1
1 23 26 1
1 27 28 1
1 27 29 1
1 27 33 1
1 29 30 1
1 29 31 1
1 29 32 1
1 33 34 1
1 33 35 1
1 33 36 1
1 37 38 ar
1 37 45 ar
1 38 39 ar
1 38 46 1
1 39 40 1
1 39 41 ar
1 41 42 1
1 41 43 ar
1 43 44 1
1 43 45 ar
1 45 56 1
1 46 47 1
1 46 48 1
1 46 52 1
1 48 49 1
1 48 50 1
1 48 51 1
1 52 53 1
1 52 54 1
1 52 55 1
1 56 57 1
1 56 58 1
1 56 62 1
1 58 59 1
1 58 60 1
1 58 61 1
1 62 63 1
1 62 64 1
1 62 65 1
@<TRIPOS>SUBSTRUCTURE
1 RES1 65

