@<TRIPOS>MOLECULE

47	49	1
SMALL
PartialCharges
****
Generated from molSimplify

@<TRIPOS>ATOM
1 C1	3.8229  10.6775  -2.066 C.3	1 RES1 0.0
2 C2	5.5614  10.6727  -3.4945 C.2	1 RES1 0.0
3 H1	6.1979  10.3719  -4.119 H	1 RES1 0.0
4 C3	5.446  11.9097  -3.0172 C.2	1 RES1 0.0
5 H2	5.9879  12.644  -3.2372 H	1 RES1 0.0
6 C4	4.4578  8.4765  -3.0437 C.ar	1 RES1 0.0
7 C5	3.5283  7.9348  -3.927 C.ar	1 RES1 0.0
8 C6	3.4276  6.5456  -3.9857 C.ar	1 RES1 0.0
9 H3	2.7935  6.1582  -4.5606 H	1 RES1 0.0
10 C7	4.2375  5.7205  -3.2203 C.ar	1 RES1 0.0
11 C8	5.2089  6.3013  -2.4094 C.ar	1 RES1 0.0
12 H4	5.7905  5.7487  -1.92 H	1 RES1 0.0
13 C9	5.3353  7.6816  -2.3082 C.ar	1 RES1 0.0
14 C10	6.3894  8.2848  -1.4175 C.3	1 RES1 0.0
15 H5	5.965  8.8384  -0.7438 H	1 RES1 0.0
16 H6	6.9912  8.8285  -1.951 H	1 RES1 0.0
17 H7	6.8911  7.576  -0.9856 H	1 RES1 0.0
18 C11	2.6975  8.7946  -4.8332 C.3	1 RES1 0.0
19 H8	3.2786  9.3002  -5.4238 H	1 RES1 0.0
20 H9	2.167  9.4075  -4.3003 H	1 RES1 0.0
21 H10	2.1082  8.234  -5.3618 H	1 RES1 0.0
22 C12	4.0575  4.2209  -3.2543 C.3	1 RES1 0.0
23 H11	3.8344  3.9017  -2.3648 H	1 RES1 0.0
24 H12	4.8809  3.8028  -3.5502 H	1 RES1 0.0
25 H13	3.3408  3.9949  -3.8664 H	1 RES1 0.0
26 C13	3.9007  13.0849  -1.4406 C.ar	1 RES1 0.0
27 C14	4.1744  13.238  -0.0815 C.ar	1 RES1 0.0
28 C15	3.6978  14.379  0.5411 C.ar	1 RES1 0.0
29 H14	3.8596  14.4925  1.4598 H	1 RES1 0.0
30 C16	2.9937  15.3585  -0.137 C.ar	1 RES1 0.0
31 C17	2.7714  15.1785  -1.4906 C.ar	1 RES1 0.0
32 H15	2.3012  15.8396  -1.965 H	1 RES1 0.0
33 C18	3.2178  14.0568  -2.1694 C.ar	1 RES1 0.0
34 C19	2.9844  13.9206  -3.6539 C.3	1 RES1 0.0
35 H16	2.4732  13.1143  -3.8276 H	1 RES1 0.0
36 H17	3.8373  13.8669  -4.1112 H	1 RES1 0.0
37 H18	2.4922  14.6916  -3.9764 H	1 RES1 0.0
38 C20	4.9902  12.2438  0.6953 C.3	1 RES1 0.0
39 H19	5.8755  12.178  0.3068 H	1 RES1 0.0
40 H20	4.5581  11.376  0.6632 H	1 RES1 0.0
41 H21	5.0627  12.5353  1.6178 H	1 RES1 0.0
42 C21	2.5095  16.6064  0.5625 C.3	1 RES1 0.0
43 H22	3.2688  17.0879  0.9267 H	1 RES1 0.0
44 H23	1.9074  16.3621  1.2816 H	1 RES1 0.0
45 H24	2.042  17.1727  -0.0728 H	1 RES1 0.0
46 N1	4.5673  9.9109  -2.8966 N.pl3	1 RES1 0.0
47 N2	4.3732  11.9121  -2.1312 N.pl3	1 RES1 0.0
@<TRIPOS>BOND
1 1 46 1
1 1 47 1
1 2 3 1
1 2 4 2
1 2 46 1
1 4 5 1
1 4 47 1
1 6 7 ar
1 6 13 ar
1 6 46 1
1 7 8 ar
1 7 18 1
1 8 9 1
1 8 10 ar
1 10 11 ar
1 10 22 1
1 11 12 1
1 11 13 ar
1 13 14 1
1 14 15 1
1 14 16 1
1 14 17 1
1 18 19 1
1 18 20 1
1 18 21 1
1 22 23 1
1 22 24 1
1 22 25 1
1 26 27 ar
1 26 33 ar
1 26 47 1
1 27 28 ar
1 27 38 1
1 28 29 1
1 28 30 ar
1 30 31 ar
1 30 42 1
1 31 32 1
1 31 33 ar
1 33 34 1
1 34 35 1
1 34 36 1
1 34 37 1
1 38 39 1
1 38 40 1
1 38 41 1
1 42 43 1
1 42 44 1
1 42 45 1
@<TRIPOS>SUBSTRUCTURE
1 RES1 47

