@<TRIPOS>MOLECULE

24	24	1
SMALL
PartialCharges
****
Generated from molSimplify

@<TRIPOS>ATOM
1 N1	8.5911  3.5306  2.2912 N.pl3	1 RES1 0.0
2 N2	7.7355  4.2898  4.0859 N.pl3	1 RES1 0.0
3 C1	7.5748  3.3218  3.1587 C.3	1 RES1 0.0
4 C2	9.3641  4.5993  2.67 C.2	1 RES1 0.0
5 H1	10.1347  4.9262  2.2205 H	1 RES1 0.0
6 C3	8.8283  5.0953  3.7952 C.2	1 RES1 0.0
7 H2	9.1339  5.8455  4.2918 H	1 RES1 0.0
8 C4	6.8012  4.5085  5.2032 C.3	1 RES1 0.0
9 H3	7.301  4.8518  5.9858 H	1 RES1 0.0
10 H4	6.3876  3.6469  5.4594 H	1 RES1 0.0
11 C5	5.7043  5.5046  4.8261 C.3	1 RES1 0.0
12 H5	6.1217  6.3745  4.6045 H	1 RES1 0.0
13 H6	5.2367  5.1778  4.0167 H	1 RES1 0.0
14 C6	4.6873  5.7134  5.9355 C.3	1 RES1 0.0
15 H7	4.2566  4.846  6.1414 H	1 RES1 0.0
16 H8	3.9836  6.3299  5.6134 H	1 RES1 0.0
17 C7	5.2882  6.282  7.2226 C.3	1 RES1 0.0
18 H9	5.8829  5.6168  7.6265 H	1 RES1 0.0
19 H10	4.5684  6.5015  7.8496 H	1 RES1 0.0
20 H11	5.798  7.0925  7.0136 H	1 RES1 0.0
21 C8	8.8617  2.6896  1.1236 C.3	1 RES1 0.0
22 H12	9.2809  1.8528  1.4143 H	1 RES1 0.0
23 H13	9.4645  3.1625  0.5139 H	1 RES1 0.0
24 H14	8.02  2.4899  0.6632 H	1 RES1 0.0
@<TRIPOS>BOND
1 1 3 1
1 1 4 1
1 1 21 1
1 2 3 1
1 2 6 1
1 2 8 1
1 4 5 1
1 4 6 2
1 6 7 1
1 8 9 1
1 8 10 1
1 8 11 1
1 11 12 1
1 11 13 1
1 11 14 1
1 14 15 1
1 14 16 1
1 14 17 1
1 17 18 1
1 17 19 1
1 17 20 1
1 21 22 1
1 21 23 1
1 21 24 1
@<TRIPOS>SUBSTRUCTURE
1 RES1 24

