@<TRIPOS>MOLECULE

67	69	1
SMALL
PartialCharges
****
Generated from molSimplify

@<TRIPOS>ATOM
1 N1	4.1098  3.4079  7.5288 N.pl3	1 RES1 0.0
2 N2	3.3256  4.4059  9.3015 N.pl3	1 RES1 0.0
3 C1	4.3032  4.4175  8.3831 C.3	1 RES1 0.0
4 C2	2.8001  2.7356  7.7777 C.3	1 RES1 0.0
5 H1	2.8812  1.7513  7.719 H	1 RES1 0.0
6 H2	2.1052  3.0445  7.1435 H	1 RES1 0.0
7 C3	2.4974  3.1886  9.2018 C.3	1 RES1 0.0
8 H3	1.5362  3.3937  9.3204 H	1 RES1 0.0
9 H4	2.7726  2.5088  9.8652 H	1 RES1 0.0
10 C4	3.1536  5.2442  10.4673 C.ar	1 RES1 0.0
11 C5	3.9082  4.9858  11.6196 C.ar	1 RES1 0.0
12 C6	3.6195  5.727  12.7672 C.ar	1 RES1 0.0
13 H5	4.1209  5.5699  13.5599 H	1 RES1 0.0
14 C7	2.6352  6.6708  12.7779 C.ar	1 RES1 0.0
15 H6	2.4518  7.155  13.5753 H	1 RES1 0.0
16 C8	1.9023  6.9248  11.6319 C.ar	1 RES1 0.0
17 H7	1.226  7.591  11.6554 H	1 RES1 0.0
18 C9	2.1296  6.2217  10.4262 C.ar	1 RES1 0.0
19 C10	5.0017  3.9354  11.671 C.3	1 RES1 0.0
20 H8	5.0923  3.5396  10.757 H	1 RES1 0.0
21 C11	6.3415  4.5354  12.0568 C.3	1 RES1 0.0
22 H9	7.0182  3.8297  12.0904 H	1 RES1 0.0
23 H10	6.2663  4.9603  12.9383 H	1 RES1 0.0
24 H11	6.602  5.2078  11.3918 H	1 RES1 0.0
25 C12	4.6049  2.7951  12.6527 C.3	1 RES1 0.0
26 H12	3.8009  2.3444  12.321 H	1 RES1 0.0
27 H13	4.427  3.1739  13.538 H	1 RES1 0.0
28 H14	5.3399  2.1485  12.7142 H	1 RES1 0.0
29 C13	1.2717  6.4844  9.2123 C.3	1 RES1 0.0
30 H15	1.7066  6.0466  8.4264 H	1 RES1 0.0
31 C14	-0.1391  5.8544  9.3885 C.3	1 RES1 0.0
32 H16	-0.6138  5.8729  8.5318 H	1 RES1 0.0
33 H17	-0.6446  6.368  10.0541 H	1 RES1 0.0
34 H18	-0.0466  4.927  9.6916 H	1 RES1 0.0
35 C15	1.1253  7.9771  8.903 C.3	1 RES1 0.0
36 H19	0.6496  8.0898  8.0529 H	1 RES1 0.0
37 H20	2.0148  8.3854  8.8371 H	1 RES1 0.0
38 H21	0.6208  8.4113  9.6213 H	1 RES1 0.0
39 C16	4.7335  3.17  6.2512 C.ar	1 RES1 0.0
40 C17	4.4473  4.0213  5.1801 C.ar	1 RES1 0.0
41 C18	4.9633  3.6728  3.9357 C.ar	1 RES1 0.0
42 H22	4.7958  4.2417  3.1939 H	1 RES1 0.0
43 C19	5.6961  2.5478  3.7486 C.ar	1 RES1 0.0
44 H23	6.0236  2.3333  2.882 H	1 RES1 0.0
45 C20	5.9654  1.7172  4.8111 C.ar	1 RES1 0.0
46 H24	6.4842  0.9348  4.6701 H	1 RES1 0.0
47 C21	5.4915  1.9996  6.0948 C.ar	1 RES1 0.0
48 C22	3.5587  5.249  5.2996 C.3	1 RES1 0.0
49 H25	3.3333  5.3907  6.2627 H	1 RES1 0.0
50 C23	4.2999  6.4959  4.7762 C.3	1 RES1 0.0
51 H26	3.7277  7.2843  4.8832 H	1 RES1 0.0
52 H27	4.5143  6.3736  3.8288 H	1 RES1 0.0
53 H28	5.1268  6.6211  5.2851 H	1 RES1 0.0
54 C24	2.2668  5.0656  4.5119 C.3	1 RES1 0.0
55 H29	1.7302  5.884  4.5712 H	1 RES1 0.0
56 H30	1.7579  4.3155  4.8876 H	1 RES1 0.0
57 H31	2.4794  4.8809  3.574 H	1 RES1 0.0
58 C25	5.7618  1.0024  7.2103 C.3	1 RES1 0.0
59 H32	5.4648  1.4114  8.0727 H	1 RES1 0.0
60 C26	4.9387  -0.2876  6.981 C.3	1 RES1 0.0
61 H33	5.015  -0.8664  7.7696 H	1 RES1 0.0
62 H34	5.2838  -0.7593  6.1946 H	1 RES1 0.0
63 H35	3.9994  -0.0536  6.836 H	1 RES1 0.0
64 C27	7.2333  0.6629  7.3337 C.3	1 RES1 0.0
65 H36	7.3676  0.0647  8.0991 H	1 RES1 0.0
66 H37	7.7481  1.4853  7.4686 H	1 RES1 0.0
67 H38	7.5348  0.218  6.5153 H	1 RES1 0.0
@<TRIPOS>BOND
1 1 3 1
1 1 4 1
1 1 39 1
1 2 3 1
1 2 7 1
1 2 10 1
1 4 5 1
1 4 6 1
1 4 7 1
1 7 8 1
1 7 9 1
1 10 11 ar
1 10 18 ar
1 11 12 ar
1 11 19 1
1 12 13 1
1 12 14 ar
1 14 15 1
1 14 16 ar
1 16 17 1
1 16 18 ar
1 18 29 1
1 19 20 1
1 19 21 1
1 19 25 1
1 21 22 1
1 21 23 1
1 21 24 1
1 25 26 1
1 25 27 1
1 25 28 1
1 29 30 1
1 29 31 1
1 29 35 1
1 31 32 1
1 31 33 1
1 31 34 1
1 35 36 1
1 35 37 1
1 35 38 1
1 39 40 ar
1 39 47 ar
1 40 41 ar
1 40 48 1
1 41 42 1
1 41 43 ar
1 43 44 1
1 43 45 ar
1 45 46 1
1 45 47 ar
1 47 58 1
1 48 49 1
1 48 50 1
1 48 54 1
1 50 51 1
1 50 52 1
1 50 53 1
1 54 55 1
1 54 56 1
1 54 57 1
1 58 59 1
1 58 60 1
1 58 64 1
1 60 61 1
1 60 62 1
1 60 63 1
1 64 65 1
1 64 66 1
1 64 67 1
@<TRIPOS>SUBSTRUCTURE
1 RES1 67

