@<TRIPOS>MOLECULE

23	23	1
SMALL
PartialCharges
****
Generated from molSimplify

@<TRIPOS>ATOM
1 O1	4.6444  0.5777  10.5063 O.3	1 RES1 0.0
2 O2	2.8178  4.3746  8.5962 O.3	1 RES1 0.0
3 N1	3.9331  1.6637  10.2866 N.pl3	1 RES1 0.0
4 N2	3.1171  3.4451  9.4339 N.pl3	1 RES1 0.0
5 C1	3.9285  2.3446  9.1802 C.2	1 RES1 0.0
6 C2	2.9519  2.1104  11.3264 C.3	1 RES1 0.0
7 C3	2.7958  3.5862  10.8982 C.3	1 RES1 0.0
8 C4	1.6812  1.2786  11.0953 C.3	1 RES1 0.0
9 C5	3.4794  1.8948  12.7191 C.3	1 RES1 0.0
10 C6	1.4188  4.19  11.0815 C.3	1 RES1 0.0
11 C7	3.8573  4.5258  11.4809 C.3	1 RES1 0.0
12 H1	1.4183  1.3371  10.1534 H	1 RES1 0.0
13 H2	1.8579  0.342  11.3264 H	1 RES1 0.0
14 H3	0.9569  1.6206  11.6592 H	1 RES1 0.0
15 H4	3.763  0.9612  12.8208 H	1 RES1 0.0
16 H5	2.7737  2.0919  13.3709 H	1 RES1 0.0
17 H6	4.2435  2.4863  12.8749 H	1 RES1 0.0
18 H7	0.7435  3.58  10.7211 H	1 RES1 0.0
19 H8	1.251  4.3379  12.036 H	1 RES1 0.0
20 H9	1.3717  5.0465  10.6056 H	1 RES1 0.0
21 H10	3.7578  4.5659  12.4541 H	1 RES1 0.0
22 H11	3.7428  5.4224  11.1029 H	1 RES1 0.0
23 H12	4.7498  4.1869  11.2573 H	1 RES1 0.0
@<TRIPOS>BOND
1 1 3 1
1 2 4 1
1 3 5 1
1 3 6 1
1 4 5 1
1 4 7 1
1 6 7 1
1 6 8 1
1 6 9 1
1 7 10 1
1 7 11 1
1 8 12 1
1 8 13 1
1 8 14 1
1 9 15 1
1 9 16 1
1 9 17 1
1 10 18 1
1 10 19 1
1 10 20 1
1 11 21 1
1 11 22 1
1 11 23 1
@<TRIPOS>SUBSTRUCTURE
1 RES1 23

