@<TRIPOS>MOLECULE

57	59	1
SMALL
PartialCharges
****
Generated from molSimplify

@<TRIPOS>ATOM
1 O1	7.6476  13.0771  7.4757 O.3	1 RES1 0.0
2 N1	7.9131  14.2657  11.3342 N.pl3	1 RES1 0.0
3 N2	7.9158  14.9717  9.3007 N.pl3	1 RES1 0.0
4 C1	7.1058  14.6969  10.3528 C.3	1 RES1 0.0
5 C2	9.2522  14.2599  10.9049 C.2	1 RES1 0.0
6 C3	9.2548  14.6811  9.6117 C.2	1 RES1 0.0
7 C4	10.4042  13.9139  11.7845 C.3	1 RES1 0.0
8 C5	10.3514  14.8307  8.6354 C.3	1 RES1 0.0
9 C6	7.4843  13.93  12.7038 C.3	1 RES1 0.0
10 C7	6.4045  12.8546  12.7751 C.ar	1 RES1 0.0
11 C8	5.1895  13.1245  13.4094 C.ar	1 RES1 0.0
12 C9	4.2267  12.1267  13.4922 C.ar	1 RES1 0.0
13 C10	4.419  10.862  12.9598 C.ar	1 RES1 0.0
14 C11	5.6295  10.6082  12.3193 C.ar	1 RES1 0.0
15 C12	6.6291  11.5656  12.2207 C.ar	1 RES1 0.0
16 C13	4.8852  14.4905  14.0211 C.3	1 RES1 0.0
17 C14	3.374  9.8001  13.0774 C.3	1 RES1 0.0
18 C15	7.9187  11.2047  11.5103 C.3	1 RES1 0.0
19 C16	7.4498  15.3392  7.9977 C.ar	1 RES1 0.0
20 C17	7.2823  14.3159  7.0563 C.ar	1 RES1 0.0
21 C18	6.7853  14.643  5.7967 C.ar	1 RES1 0.0
22 C19	6.4743  15.9724  5.4925 C.ar	1 RES1 0.0
23 C20	6.6727  16.9761  6.4147 C.ar	1 RES1 0.0
24 C21	7.1643  16.6602  7.6848 C.ar	1 RES1 0.0
25 C22	7.856  12.0274  6.4813 C.3	1 RES1 0.0
26 C23	9.0561  12.3534  5.6177 C.3	1 RES1 0.0
27 C24	8.0814  10.7826  7.2962 C.3	1 RES1 0.0
28 H1	11.2426  14.1016  11.3144 H	1 RES1 0.0
29 H2	10.365  12.9623  12.0146 H	1 RES1 0.0
30 H3	10.3618  14.4495  12.6042 H	1 RES1 0.0
31 H4	11.2113  14.7413  9.0954 H	1 RES1 0.0
32 H5	10.2957  15.7149  8.2158 H	1 RES1 0.0
33 H6	10.2731  14.1366  7.9487 H	1 RES1 0.0
34 H7	7.1444  14.7506  13.1403 H	1 RES1 0.0
35 H8	8.2732  13.623  13.2166 H	1 RES1 0.0
36 H9	3.4055  12.3179  13.9302 H	1 RES1 0.0
37 H10	5.777  9.7497  11.9383 H	1 RES1 0.0
38 H11	4.0973  14.8767  13.583 H	1 RES1 0.0
39 H12	5.6535  15.0845  13.894 H	1 RES1 0.0
40 H13	4.7074  14.3864  14.9796 H	1 RES1 0.0
41 H14	2.5074  10.2143  13.2739 H	1 RES1 0.0
42 H15	3.6136  9.1847  13.8005 H	1 RES1 0.0
43 H16	3.3145  9.3061  12.2321 H	1 RES1 0.0
44 H17	8.6818  11.4821  12.0585 H	1 RES1 0.0
45 H18	7.9538  11.6618  10.6447 H	1 RES1 0.0
46 H19	7.9546  10.2353  11.3697 H	1 RES1 0.0
47 H20	6.6586  13.9638  5.1439 H	1 RES1 0.0
48 H21	6.1201  16.1865  4.6364 H	1 RES1 0.0
49 H22	6.4764  17.8768  6.1895 H	1 RES1 0.0
50 H23	7.3012  17.3445  8.3284 H	1 RES1 0.0
51 H24	7.0399  11.9233  5.9129 H	1 RES1 0.0
52 H25	8.8712  13.1607  5.0943 H	1 RES1 0.0
53 H26	9.2353  11.6035  5.0123 H	1 RES1 0.0
54 H27	9.8372  12.507  6.1895 H	1 RES1 0.0
55 H28	8.8751  10.8984  7.8571 H	1 RES1 0.0
56 H29	8.2136  10.0182  6.6951 H	1 RES1 0.0
57 H30	7.3005  10.6182  7.8647 H	1 RES1 0.0
@<TRIPOS>BOND
1 1 20 1
1 1 25 1
1 2 4 1
1 2 5 1
1 2 9 1
1 3 4 1
1 3 6 1
1 3 19 1
1 5 6 2
1 5 7 1
1 6 8 1
1 7 28 1
1 7 29 1
1 7 30 1
1 8 31 1
1 8 32 1
1 8 33 1
1 9 10 1
1 9 34 1
1 9 35 1
1 10 11 ar
1 10 15 ar
1 11 12 ar
1 11 16 1
1 12 13 ar
1 12 36 1
1 13 14 ar
1 13 17 1
1 14 15 ar
1 14 37 1
1 15 18 1
1 16 38 1
1 16 39 1
1 16 40 1
1 17 41 1
1 17 42 1
1 17 43 1
1 18 44 1
1 18 45 1
1 18 46 1
1 19 20 ar
1 19 24 ar
1 20 21 ar
1 21 22 ar
1 21 47 1
1 22 23 ar
1 22 48 1
1 23 24 ar
1 23 49 1
1 24 50 1
1 25 26 1
1 25 27 1
1 25 51 1
1 26 52 1
1 26 53 1
1 26 54 1
1 27 55 1
1 27 56 1
1 27 57 1
@<TRIPOS>SUBSTRUCTURE
1 RES1 57

