@<TRIPOS>MOLECULE

39	39	1
SMALL
PartialCharges
****
Generated from molSimplify

@<TRIPOS>ATOM
1 C1	1.2895  5.2176  4.9597 C.3	1 RES1 0.0
2 C2	1.6905  5.4973  7.1474 C.2	1 RES1 0.0
3 H1	1.902  5.3056  8.0432 H	1 RES1 0.0
4 C3	1.3921  6.7018  6.6339 C.2	1 RES1 0.0
5 H2	1.3574  7.5159  7.1027 H	1 RES1 0.0
6 C4	1.8259  3.1463  6.2317 C.3	1 RES1 0.0
7 H3	2.6231  2.9766  6.7758 H	1 RES1 0.0
8 H4	1.9754  2.7563  5.345 H	1 RES1 0.0
9 C5	0.6308  2.4854  6.8743 C.3	1 RES1 0.0
10 H5	0.4646  2.894  7.7492 H	1 RES1 0.0
11 H6	-0.1612  2.6316  6.316 H	1 RES1 0.0
12 C6	0.8558  1.0075  7.047 C.2	1 RES1 0.0
13 C7	-0.0144  -0.9707  8.0421 C.3	1 RES1 0.0
14 H7	0.3822  -1.441  7.2796 H	1 RES1 0.0
15 H8	-0.9  -1.3565  8.2115 H	1 RES1 0.0
16 C8	0.8558  -1.1499  9.2573 C.3	1 RES1 0.0
17 H9	0.9389  -2.0955  9.4581 H	1 RES1 0.0
18 H10	1.7345  -0.7782  9.0836 H	1 RES1 0.0
19 H11	0.4545  -0.6935  10.0131 H	1 RES1 0.0
20 C9	0.7376  7.5613  4.3428 C.3	1 RES1 0.0
21 H12	0.0452  8.1164  4.7595 H	1 RES1 0.0
22 H13	0.3466  7.1401  3.5483 H	1 RES1 0.0
23 C10	1.8833  8.4406  3.919 C.3	1 RES1 0.0
24 H14	2.236  8.9163  4.6998 H	1 RES1 0.0
25 H15	2.6023  7.8855  3.5508 H	1 RES1 0.0
26 C11	1.4366  9.4366  2.8823 C.2	1 RES1 0.0
27 C12	2.1094  11.1499  1.3979 C.3	1 RES1 0.0
28 H16	1.6095  11.8897  1.8004 H	1 RES1 0.0
29 H17	1.5512  10.7418  0.7026 H	1 RES1 0.0
30 C13	3.3662  11.6504  0.8075 C.3	1 RES1 0.0
31 H18	3.1637  12.3111  0.1269 H	1 RES1 0.0
32 H19	3.9099  12.0558  1.5003 H	1 RES1 0.0
33 H20	3.8514  10.9124  0.4074 H	1 RES1 0.0
34 N1	1.625  4.5913  6.0997 N.pl3	1 RES1 0.0
35 N2	1.1456  6.5175  5.2862 N.pl3	1 RES1 0.0
36 O1	1.8082  0.4039  6.6309 O.2	1 RES1 0.0
37 O2	-0.1495  0.4508  7.7269 O.3	1 RES1 0.0
38 O3	0.3024  9.5594  2.5077 O.2	1 RES1 0.0
39 O4	2.4479  10.1552  2.4203 O.3	1 RES1 0.0
@<TRIPOS>BOND
1 1 34 1
1 1 35 1
1 2 3 1
1 2 4 2
1 2 34 1
1 4 5 1
1 4 35 1
1 6 7 1
1 6 8 1
1 6 9 1
1 6 34 1
1 9 10 1
1 9 11 1
1 9 12 1
1 12 36 2
1 12 37 1
1 13 14 1
1 13 15 1
1 13 16 1
1 13 37 1
1 16 17 1
1 16 18 1
1 16 19 1
1 20 21 1
1 20 22 1
1 20 23 1
1 20 35 1
1 23 24 1
1 23 25 1
1 23 26 1
1 26 38 2
1 26 39 1
1 27 28 1
1 27 29 1
1 27 30 1
1 27 39 1
1 30 31 1
1 30 32 1
1 30 33 1
@<TRIPOS>SUBSTRUCTURE
1 RES1 39

