@<TRIPOS>MOLECULE

42	43	1
SMALL
PartialCharges
****
Generated from molSimplify

@<TRIPOS>ATOM
1 C1	2.5362  0.1243  4.4103 C.3	1 RES1 0.0
2 H1	2.0471  -0.2745  3.6734 H	1 RES1 0.0
3 H2	2.0373  0.9003  4.7102 H	1 RES1 0.0
4 C2	3.8935  0.5785  3.9104 C.ar	1 RES1 0.0
5 C3	4.3366  1.8753  4.1362 C.ar	1 RES1 0.0
6 H3	3.8141  2.454  4.6441 H	1 RES1 0.0
7 C4	5.5392  2.3216  3.6218 C.ar	1 RES1 0.0
8 H4	5.7819  3.212  3.733 H	1 RES1 0.0
9 C5	6.376  1.4765  2.9526 C.ar	1 RES1 0.0
10 C6	5.9658  0.1472  2.7203 C.ar	1 RES1 0.0
11 H5	6.5178  -0.4432  2.2592 H	1 RES1 0.0
12 C7	4.722  -0.2663  3.1912 C.ar	1 RES1 0.0
13 H6	4.4397  -1.1354  3.0171 H	1 RES1 0.0
14 C8	8.3504  1.3551  1.3836 C.3	1 RES1 0.0
15 C9	8.3492  2.9675  3.0364 C.2	1 RES1 0.0
16 H7	8.0808  3.4815  3.7637 H	1 RES1 0.0
17 C10	9.499  3.0811  2.343 C.2	1 RES1 0.0
18 H8	10.1752  3.7021  2.493 H	1 RES1 0.0
19 C11	10.583  1.875  0.4305 C.3	1 RES1 0.0
20 H9	11.278  2.5146  0.5983 H	1 RES1 0.0
21 H10	10.929  0.9877  0.5466 H	1 RES1 0.0
22 H11	10.2639  1.978  -0.4692 H	1 RES1 0.0
23 C12	3.417  -0.5258  8.2062 C.3	1 RES1 0.0
24 H12	2.5324  -0.7772  8.5206 H	1 RES1 0.0
25 H13	3.9624  -1.3286  8.2449 H	1 RES1 0.0
26 C13	3.9074  0.3133  9.0737 C.3	1 RES1 0.0
27 H14	3.9207  -0.0891  9.9445 H	1 RES1 0.0
28 H15	4.8038  0.551  8.819 H	1 RES1 0.0
29 H16	3.3642  1.1063  9.0963 H	1 RES1 0.0
30 C14	0.2008  -1.9937  5.6148 C.3	1 RES1 0.0
31 H17	0.123  -1.6539  4.7102 H	1 RES1 0.0
32 H18	0.5793  -2.8865  5.5487 H	1 RES1 0.0
33 C15	-1.0157  -2.1167  6.0986 C.3	1 RES1 0.0
34 H19	-1.5325  -2.6982  5.5278 H	1 RES1 0.0
35 H20	-0.979  -2.497  6.9807 H	1 RES1 0.0
36 H21	-1.4386  -1.257  6.1373 H	1 RES1 0.0
37 N1	7.6404  1.9174  2.4365 N.pl3	1 RES1 0.0
38 N2	9.4848  2.0951  1.3626 N.pl3	1 RES1 0.0
39 O1	3.2747  -2.3153  5.3843 O.2	1 RES1 0.0
40 O2	3.2908  -0.1933  6.892 O.3	1 RES1 0.0
41 O3	1.1466  -1.1848  6.2921 O.3	1 RES1 0.0
42 P1	2.6299  -1.0549  5.7474 P.3	1 RES1 0.0
@<TRIPOS>BOND
1 1 2 1
1 1 3 1
1 1 4 1
1 1 42 1
1 4 5 ar
1 4 12 ar
1 5 6 1
1 5 7 ar
1 7 8 1
1 7 9 ar
1 9 10 ar
1 9 37 1
1 10 11 1
1 10 12 ar
1 12 13 1
1 14 37 1
1 14 38 1
1 15 16 1
1 15 17 2
1 15 37 1
1 17 18 1
1 17 38 1
1 19 20 1
1 19 21 1
1 19 22 1
1 19 38 1
1 23 24 1
1 23 25 1
1 23 26 1
1 23 40 1
1 26 27 1
1 26 28 1
1 26 29 1
1 30 31 1
1 30 32 1
1 30 33 1
1 30 41 1
1 33 34 1
1 33 35 1
1 33 36 1
1 39 42 2
1 40 42 1
1 41 42 1
@<TRIPOS>SUBSTRUCTURE
1 RES1 42

