@<TRIPOS>MOLECULE

49	51	1
SMALL
PartialCharges
****
Generated from molSimplify

@<TRIPOS>ATOM
1 N1	13.8664  2.7652  4.3302 N.pl3	1 RES1 0.0
2 C1	14.5723  1.7832  3.7373 C.3	1 RES1 0.0
3 N2	13.7012  0.9912  3.0893 N.pl3	1 RES1 0.0
4 C2	12.3079  1.3826  3.3644 C.3	1 RES1 0.0
5 H1	11.8935  0.7817  4.0023 H	1 RES1 0.0
6 H2	11.7803  1.3975  2.5503 H	1 RES1 0.0
7 C3	12.4653  2.7629  3.9383 C.3	1 RES1 0.0
8 H3	12.2826  3.4455  3.2735 H	1 RES1 0.0
9 H4	11.8832  2.8975  4.7019 H	1 RES1 0.0
10 C4	14.3503  3.8818  5.1095 C.ar	1 RES1 0.0
11 C5	14.0212  3.9302  6.4537 C.ar	1 RES1 0.0
12 C6	14.3534  5.0687  7.1713 C.ar	1 RES1 0.0
13 H5	14.1219  5.1147  8.0708 H	1 RES1 0.0
14 C7	15.0112  6.1335  6.5997 C.ar	1 RES1 0.0
15 C8	15.3286  6.0414  5.2667 C.ar	1 RES1 0.0
16 H6	15.7802  6.7483  4.8658 H	1 RES1 0.0
17 C9	15.0059  4.9363  4.4941 C.ar	1 RES1 0.0
18 C10	15.3398  4.9167  3.0309 C.3	1 RES1 0.0
19 H7	15.5277  5.8101  2.7333 H	1 RES1 0.0
20 H8	14.595  4.5645  2.5368 H	1 RES1 0.0
21 H9	16.1112  4.363  2.8849 H	1 RES1 0.0
22 C11	13.3323  2.7744  7.1612 C.3	1 RES1 0.0
23 H10	12.6023  2.4601  6.6244 H	1 RES1 0.0
24 H11	13.0  3.0714  8.0113 H	1 RES1 0.0
25 H12	13.9611  2.0606  7.2948 H	1 RES1 0.0
26 C12	15.3579  7.3768  7.4139 C.3	1 RES1 0.0
27 H13	16.1076  7.8212  7.013 H	1 RES1 0.0
28 H14	15.5815  7.119  8.3111 H	1 RES1 0.0
29 H15	14.6038  7.9708  7.4285 H	1 RES1 0.0
30 C13	13.9235  -0.2118  2.3672 C.ar	1 RES1 0.0
31 C14	13.6951  -0.236  0.9916 C.ar	1 RES1 0.0
32 C15	13.7949  -1.4482  0.3313 C.ar	1 RES1 0.0
33 H16	13.6769  -1.4643  -0.5918 H	1 RES1 0.0
34 C16	14.0628  -2.6397  0.9871 C.ar	1 RES1 0.0
35 C17	14.2571  -2.581  2.3515 C.ar	1 RES1 0.0
36 H17	14.4234  -3.3707  2.813 H	1 RES1 0.0
37 C18	14.2116  -1.3826  3.0691 C.ar	1 RES1 0.0
38 C19	14.4586  -1.3998  4.548 C.3	1 RES1 0.0
39 H18	15.2076  -0.8358  4.7547 H	1 RES1 0.0
40 H19	14.6471  -2.2978  4.831 H	1 RES1 0.0
41 H20	13.6786  -1.0775  5.0073 H	1 RES1 0.0
42 C20	13.4189  1.0096  0.2111 C.3	1 RES1 0.0
43 H21	12.9104  1.6186  0.7501 H	1 RES1 0.0
44 H22	12.9198  0.7874  -0.5783 H	1 RES1 0.0
45 H23	14.2492  1.4206  -0.0404 H	1 RES1 0.0
46 C21	14.0401  -3.9336  0.2448 C.3	1 RES1 0.0
47 H24	13.9763  -3.7609  -0.6974 H	1 RES1 0.0
48 H25	13.2822  -4.4517  0.5278 H	1 RES1 0.0
49 H26	14.8461  -4.4206  0.4267 H	1 RES1 0.0
@<TRIPOS>BOND
1 1 2 1
1 1 7 1
1 1 10 1
1 2 3 1
1 3 4 1
1 3 30 1
1 4 5 1
1 4 6 1
1 4 7 1
1 7 8 1
1 7 9 1
1 10 11 ar
1 10 17 ar
1 11 12 ar
1 11 22 1
1 12 13 1
1 12 14 ar
1 14 15 ar
1 14 26 1
1 15 16 1
1 15 17 ar
1 17 18 1
1 18 19 1
1 18 20 1
1 18 21 1
1 22 23 1
1 22 24 1
1 22 25 1
1 26 27 1
1 26 28 1
1 26 29 1
1 30 31 ar
1 30 37 ar
1 31 32 ar
1 31 42 1
1 32 33 1
1 32 34 ar
1 34 35 ar
1 34 46 1
1 35 36 1
1 35 37 ar
1 37 38 1
1 38 39 1
1 38 40 1
1 38 41 1
1 42 43 1
1 42 44 1
1 42 45 1
1 46 47 1
1 46 48 1
1 46 49 1
@<TRIPOS>SUBSTRUCTURE
1 RES1 49

