@<TRIPOS>MOLECULE

49	50	1
SMALL
PartialCharges
****
Generated from molSimplify

@<TRIPOS>ATOM
1 N1	12.359  6.0286  7.8949 N.pl3	1 RES1 0.0
2 N2	13.0403  8.024  8.278 N.pl3	1 RES1 0.0
3 C1	13.3753  6.7223  8.444 C.3	1 RES1 0.0
4 C2	11.8055  8.1325  7.6449 C.2	1 RES1 0.0
5 H1	11.3508  8.9362  7.4227 H	1 RES1 0.0
6 C3	11.38  6.8768  7.4086 C.2	1 RES1 0.0
7 H2	10.5661  6.6232  6.9895 H	1 RES1 0.0
8 C4	13.8273  9.1783  8.6524 C.ar	1 RES1 0.0
9 C5	14.756  9.6825  7.7336 C.ar	1 RES1 0.0
10 C6	15.4523  10.8243  8.0893 C.ar	1 RES1 0.0
11 H3	16.0843  11.1936  7.4837 H	1 RES1 0.0
12 C7	15.2433  11.4407  9.3105 C.ar	1 RES1 0.0
13 H4	15.7369  12.2199  9.5364 H	1 RES1 0.0
14 C8	14.3154  10.9251  10.2088 C.ar	1 RES1 0.0
15 H5	14.1803  11.3555  11.0452 H	1 RES1 0.0
16 C9	13.5816  9.7785  9.8886 C.ar	1 RES1 0.0
17 C10	14.9747  9.04  6.3669 C.3	1 RES1 0.0
18 H6	14.7394  8.071  6.4386 H	1 RES1 0.0
19 C11	16.4285  9.1409  5.8999 C.3	1 RES1 0.0
20 H7	16.6221  10.0644  5.6329 H	1 RES1 0.0
21 H8	16.5685  8.5442  5.1359 H	1 RES1 0.0
22 H9	17.0255  8.8813  6.6321 H	1 RES1 0.0
23 C12	14.0517  9.676  5.3265 C.3	1 RES1 0.0
24 H10	14.2533  10.6321  5.2515 H	1 RES1 0.0
25 H11	13.1187  9.5595  5.6029 H	1 RES1 0.0
26 H12	14.1914  9.2436  4.4581 H	1 RES1 0.0
27 C13	12.5423  9.2433  10.8498 C.3	1 RES1 0.0
28 H13	12.3099  8.3149  10.562 H	1 RES1 0.0
29 C14	13.0804  9.1685  12.2818 C.3	1 RES1 0.0
30 H14	13.931  8.6799  12.2854 H	1 RES1 0.0
31 H15	12.4337  8.7005  12.85 H	1 RES1 0.0
32 H16	13.2233  10.0743  12.6259 H	1 RES1 0.0
33 C15	11.2616  10.081  10.8017 C.3	1 RES1 0.0
34 H17	11.4602  10.9986  11.0841 H	1 RES1 0.0
35 H18	10.5936  9.6917  11.4038 H	1 RES1 0.0
36 H19	10.911  10.0899  9.8866 H	1 RES1 0.0
37 C16	12.3053  4.5721  7.7791 C.3	1 RES1 0.0
38 H20	11.3595  4.2788  7.7977 H	1 RES1 0.0
39 H21	12.7649  4.1663  8.5561 H	1 RES1 0.0
40 C17	12.9533  4.0809  6.5037 C.3	1 RES1 0.0
41 H22	13.9238  4.2724  6.553 H	1 RES1 0.0
42 H23	12.8467  3.0981  6.4572 H	1 RES1 0.0
43 C18	12.421  4.6729  5.2415 C.3	1 RES1 0.0
44 H24	12.6456  5.6373  5.2208 H	1 RES1 0.0
45 H25	11.4335  4.5952  5.2439 H	1 RES1 0.0
46 C19	12.9662  4.0109  3.9717 C.3	1 RES1 0.0
47 H26	13.9188  4.2184  3.8787 H	1 RES1 0.0
48 H27	12.4798  4.3518  3.1915 H	1 RES1 0.0
49 H28	12.8463  3.0406  4.0325 H	1 RES1 0.0
@<TRIPOS>BOND
1 1 3 1
1 1 6 1
1 1 37 1
1 2 3 1
1 2 4 1
1 2 8 1
1 4 5 1
1 4 6 2
1 6 7 1
1 8 9 ar
1 8 16 ar
1 9 10 ar
1 9 17 1
1 10 11 1
1 10 12 ar
1 12 13 1
1 12 14 ar
1 14 15 1
1 14 16 ar
1 16 27 1
1 17 18 1
1 17 19 1
1 17 23 1
1 19 20 1
1 19 21 1
1 19 22 1
1 23 24 1
1 23 25 1
1 23 26 1
1 27 28 1
1 27 29 1
1 27 33 1
1 29 30 1
1 29 31 1
1 29 32 1
1 33 34 1
1 33 35 1
1 33 36 1
1 37 38 1
1 37 39 1
1 37 40 1
1 40 41 1
1 40 42 1
1 40 43 1
1 43 44 1
1 43 45 1
1 43 46 1
1 46 47 1
1 46 48 1
1 46 49 1
@<TRIPOS>SUBSTRUCTURE
1 RES1 49

