@<TRIPOS>MOLECULE

28	29	1
SMALL
PartialCharges
****
Generated from molSimplify

@<TRIPOS>ATOM
1 C1	4.5596  4.2375  4.9977 C.3	1 RES1 0.0
2 C2	4.9057  2.1043  5.7026 C.2	1 RES1 0.0
3 H1	5.142  1.3645  6.2498 H	1 RES1 0.0
4 C3	4.4161  2.0701  4.4435 C.2	1 RES1 0.0
5 H2	4.2361  1.2884  3.9349 H	1 RES1 0.0
6 C4	5.4697  3.9524  7.2848 C.ar	1 RES1 0.0
7 C5	6.3982  4.9583  7.3136 C.ar	1 RES1 0.0
8 H3	6.7422  5.3271  6.5086 H	1 RES1 0.0
9 C6	6.813  5.4144  8.5201 C.ar	1 RES1 0.0
10 H4	7.3984  6.1622  8.5459 H	1 RES1 0.0
11 C7	6.4166  4.8276  9.7356 C.ar	1 RES1 0.0
12 H5	6.7699  5.1266  10.5654 H	1 RES1 0.0
13 C8	5.492  3.799  9.6791 C.ar	1 RES1 0.0
14 H6	5.1925  3.3902  10.4821 H	1 RES1 0.0
15 C9	4.9952  3.3572  8.4497 C.ar	1 RES1 0.0
16 H7	4.3476  2.6638  8.4101 H	1 RES1 0.0
17 C10	3.6788  3.7794  2.7194 C.3	1 RES1 0.0
18 H8	3.705  4.7782  2.6768 H	1 RES1 0.0
19 C11	2.2372  3.3497  2.6124 C.3	1 RES1 0.0
20 H9	2.1408  2.4402  2.9633 H	1 RES1 0.0
21 H10	1.9605  3.3687  1.6725 H	1 RES1 0.0
22 H11	1.6743  3.9617  3.1309 H	1 RES1 0.0
23 C12	4.5407  3.2404  1.5833 C.3	1 RES1 0.0
24 H12	5.4544  3.5824  1.6755 H	1 RES1 0.0
25 H13	4.1679  3.531  0.7247 H	1 RES1 0.0
26 H14	4.5529  2.2612  1.619 H	1 RES1 0.0
27 N1	4.991  3.4609  6.0258 N.pl3	1 RES1 0.0
28 N2	4.2248  3.3686  4.0291 N.pl3	1 RES1 0.0
@<TRIPOS>BOND
1 1 27 1
1 1 28 1
1 2 3 1
1 2 4 2
1 2 27 1
1 4 5 1
1 4 28 1
1 6 7 ar
1 6 15 ar
1 6 27 1
1 7 8 1
1 7 9 ar
1 9 10 1
1 9 11 ar
1 11 12 1
1 11 13 ar
1 13 14 1
1 13 15 ar
1 15 16 1
1 17 18 1
1 17 19 1
1 17 23 1
1 17 28 1
1 19 20 1
1 19 21 1
1 19 22 1
1 23 24 1
1 23 25 1
1 23 26 1
@<TRIPOS>SUBSTRUCTURE
1 RES1 28

