@<TRIPOS>MOLECULE

41	43	1
SMALL
PartialCharges
****
Generated from molSimplify

@<TRIPOS>ATOM
1 C1	3.743  8.4614  1.3389 C.3	1 RES1 0.0
2 C2	5.449  6.9798  1.8855 C.3	1 RES1 0.0
3 H1	5.8347  6.3861  1.1921 H	1 RES1 0.0
4 H2	5.6079  6.5829  2.7781 H	1 RES1 0.0
5 C3	6.0319  8.3839  1.7954 C.3	1 RES1 0.0
6 H3	6.3719  8.6902  2.6734 H	1 RES1 0.0
7 H4	6.7627  8.4289  1.1296 H	1 RES1 0.0
8 C4	4.9888  10.6056  1.0729 C.3	1 RES1 0.0
9 H5	5.4364  11.053  1.8332 H	1 RES1 0.0
10 H6	4.0852  11.0  0.9784 H	1 RES1 0.0
11 C5	5.7802  10.8711  -0.1933 C.ar	1 RES1 0.0
12 C6	5.4875  10.1855  -1.3534 C.ar	1 RES1 0.0
13 H7	4.8031  9.5274  -1.3563 H	1 RES1 0.0
14 C7	6.1977  10.4593  -2.5266 C.ar	1 RES1 0.0
15 H8	6.0072  9.9783  -3.3232 H	1 RES1 0.0
16 C8	7.1561  11.4124  -2.5208 C.ar	1 RES1 0.0
17 H9	7.6191  11.6147  -3.3261 H	1 RES1 0.0
18 C9	7.4676  12.0803  -1.3912 C.ar	1 RES1 0.0
19 H10	8.1554  12.7357  -1.4058 H	1 RES1 0.0
20 C10	6.7847  11.8156  -0.1904 C.ar	1 RES1 0.0
21 H11	7.0104  12.2797  0.6077 H	1 RES1 0.0
22 C11	3.0574  6.1182  1.6558 C.3	1 RES1 0.0
23 H12	3.4354  5.3498  1.1586 H	1 RES1 0.0
24 H13	2.234  6.4077  1.1877 H	1 RES1 0.0
25 C12	2.699  5.6705  3.0688 C.2	1 RES1 0.0
26 C13	1.1369  4.1926  4.2623 C.ar	1 RES1 0.0
27 C14	0.4117  3.0182  4.0617 C.ar	1 RES1 0.0
28 H14	0.2803  2.6788  3.1837 H	1 RES1 0.0
29 C15	-0.1146  2.3542  5.1578 C.ar	1 RES1 0.0
30 H15	-0.6036  1.5495  5.0314 H	1 RES1 0.0
31 C16	0.0678  2.8519  6.4226 C.ar	1 RES1 0.0
32 H16	-0.3002  2.3889  7.1669 H	1 RES1 0.0
33 C17	0.7689  4.0014  6.6247 C.ar	1 RES1 0.0
34 H17	0.8897  4.3375  7.5056 H	1 RES1 0.0
35 C18	1.3055  4.6787  5.5402 C.ar	1 RES1 0.0
36 H18	1.7909  5.4821  5.6783 H	1 RES1 0.0
37 N1	4.017  7.2094  1.6514 N.pl3	1 RES1 0.0
38 N2	4.8604  9.1779  1.3651 N.pl3	1 RES1 0.0
39 N3	1.6471  4.8372  3.111 N.am	1 RES1 0.0
40 H19	1.2358  4.6761  2.3507 H	1 RES1 0.0
41 O1	3.3583  6.0196  4.0348 O.2	1 RES1 0.0
@<TRIPOS>BOND
1 1 37 un
1 1 38 un
1 2 3 1
1 2 4 1
1 2 5 1
1 2 37 1
1 5 6 1
1 5 7 1
1 5 38 1
1 8 9 1
1 8 10 1
1 8 11 1
1 8 38 1
1 11 12 ar
1 11 20 ar
1 12 13 1
1 12 14 ar
1 14 15 1
1 14 16 ar
1 16 17 1
1 16 18 ar
1 18 19 1
1 18 20 ar
1 20 21 1
1 22 23 1
1 22 24 1
1 22 25 1
1 22 37 1
1 25 39 am
1 25 41 2
1 26 27 ar
1 26 35 ar
1 26 39 1
1 27 28 1
1 27 29 ar
1 29 30 1
1 29 31 ar
1 31 32 1
1 31 33 ar
1 33 34 1
1 33 35 ar
1 35 36 1
1 39 40 1
@<TRIPOS>SUBSTRUCTURE
1 RES1 41

