@<TRIPOS>MOLECULE

42	43	1
SMALL
PartialCharges
****
Generated from molSimplify

@<TRIPOS>ATOM
1 N1	6.7127  6.3118  9.2511 N.ar	1 RES1 0.0
2 N2	4.9938  6.2659  10.6252 N.ar	1 RES1 0.0
3 N3	6.1444  5.7648  11.2106 N.ar	1 RES1 0.0
4 C1	7.212  5.7847  10.402 C.ar	1 RES1 0.0
5 C2	5.3917  6.5743  9.4303 C.ar	1 RES1 0.0
6 H1	4.827  6.9397  8.7595 H	1 RES1 0.0
7 C3	6.1529  5.3994  12.6383 C.3	1 RES1 0.0
8 H2	7.0178  4.9273  12.8055 H	1 RES1 0.0
9 C4	5.0264  4.4062  13.0246 C.3	1 RES1 0.0
10 H3	5.2775  4.0548  13.9275 H	1 RES1 0.0
11 C5	3.6739  5.1179  13.2206 C.3	1 RES1 0.0
12 H4	3.3319  5.4154  12.3403 H	1 RES1 0.0
13 H5	3.0207  4.4771  13.5983 H	1 RES1 0.0
14 C6	3.7868  6.3268  14.15 C.3	1 RES1 0.0
15 H6	2.9034  6.767  14.2165 H	1 RES1 0.0
16 H7	4.0392  6.0163  15.0556 H	1 RES1 0.0
17 C7	4.8128  7.344  13.6699 C.3	1 RES1 0.0
18 H8	4.5289  7.6834  12.773 H	1 RES1 0.0
19 C8	6.1606  6.6442  13.5206 C.3	1 RES1 0.0
20 H9	6.4825  6.3887  14.4205 H	1 RES1 0.0
21 H10	6.8097  7.2911  13.1455 H	1 RES1 0.0
22 C9	4.9657  3.1734  12.1054 C.3	1 RES1 0.0
23 H11	4.7925  3.4888  11.172 H	1 RES1 0.0
24 C10	6.2858  2.4117  12.1085 C.3	1 RES1 0.0
25 H12	6.9754  2.9518  11.6696 H	1 RES1 0.0
26 H13	6.1765  1.5662  11.6248 H	1 RES1 0.0
27 H14	6.5535  2.2261  13.0327 H	1 RES1 0.0
28 C11	3.8403  2.2071  12.4995 C.3	1 RES1 0.0
29 H15	3.8987  1.3975  11.9509 H	1 RES1 0.0
30 H16	2.9738  2.6403  12.3542 H	1 RES1 0.0
31 H17	3.932  1.9685  13.4453 H	1 RES1 0.0
32 C12	4.924  8.5279  14.626 C.3	1 RES1 0.0
33 H18	4.0522  8.9691  14.7017 H	1 RES1 0.0
34 H19	5.5844  9.1647  14.2798 H	1 RES1 0.0
35 H20	5.2082  8.2094  15.5085 H	1 RES1 0.0
36 C13	7.4869  6.6063  8.0347 C.3	1 RES1 0.0
37 H21	8.4496  6.4865  8.2295 H	1 RES1 0.0
38 H22	7.3433  7.5536  7.7844 H	1 RES1 0.0
39 C14	7.1133  5.7388  6.8772 C.3	1 RES1 0.0
40 H23	7.722  5.9125  6.1292 H	1 RES1 0.0
41 H24	6.194  5.9355  6.6037 H	1 RES1 0.0
42 H25	7.1819  4.7965  7.1415 H	1 RES1 0.0
@<TRIPOS>BOND
1 1 4 ar
1 1 5 ar
1 1 36 1
1 2 3 ar
1 2 5 ar
1 3 4 ar
1 3 7 1
1 5 6 1
1 7 8 1
1 7 9 1
1 7 19 1
1 9 10 1
1 9 11 1
1 9 22 1
1 11 12 1
1 11 13 1
1 11 14 1
1 14 15 1
1 14 16 1
1 14 17 1
1 17 18 1
1 17 19 1
1 17 32 1
1 19 20 1
1 19 21 1
1 22 23 1
1 22 24 1
1 22 28 1
1 24 25 1
1 24 26 1
1 24 27 1
1 28 29 1
1 28 30 1
1 28 31 1
1 32 33 1
1 32 34 1
1 32 35 1
1 36 37 1
1 36 38 1
1 36 39 1
1 39 40 1
1 39 41 1
1 39 42 1
@<TRIPOS>SUBSTRUCTURE
1 RES1 42

