@<TRIPOS>MOLECULE

55	57	1
SMALL
PartialCharges
****
Generated from molSimplify

@<TRIPOS>ATOM
1 N1	9.4118  12.4707  13.0345 N.pl3	1 RES1 0.0
2 C1	11.4953  8.6321  11.784 C.3	1 RES1 0.0
3 H1	10.6938  9.1586  11.7447 H	1 RES1 0.0
4 H2	12.0243  8.7966  10.9995 H	1 RES1 0.0
5 H3	11.2671  7.7013  11.8261 H	1 RES1 0.0
6 N2	11.424  11.3133  12.9515 N.pl3	1 RES1 0.0
7 C2	10.2078  11.4744  13.464 C.3	1 RES1 0.0
8 C3	12.3284  10.3168  13.5088 C.ar	1 RES1 0.0
9 C4	12.2857  9.0114  13.009 C.ar	1 RES1 0.0
10 C5	11.8243  11.9173  11.6556 C.3	1 RES1 0.0
11 H4	12.556  11.4024  11.2797 H	1 RES1 0.0
12 H5	11.0778  11.8651  11.0386 H	1 RES1 0.0
13 C6	13.0863  8.0559  13.6347 C.ar	1 RES1 0.0
14 H6	13.034  7.1718  13.3511 H	1 RES1 0.0
15 C7	13.955  8.3757  14.6615 C.ar	1 RES1 0.0
16 C8	7.9791  12.3644  13.2396 C.ar	1 RES1 0.0
17 C9	3.7271  11.9936  13.7279 C.3	1 RES1 0.0
18 H7	3.4814  12.2796  14.6102 H	1 RES1 0.0
19 H8	3.28  12.5403  13.0791 H	1 RES1 0.0
20 H9	3.472  11.0774  13.6038 H	1 RES1 0.0
21 C10	5.2187  12.1266  13.5554 C.ar	1 RES1 0.0
22 C11	7.8878  11.086  11.0497 C.3	1 RES1 0.0
23 H10	8.265  11.7946  10.5234 H	1 RES1 0.0
24 H11	8.5819  10.4753  11.3087 H	1 RES1 0.0
25 H12	7.2272  10.6197  10.5325 H	1 RES1 0.0
26 C12	9.8211  13.743  12.3596 C.3	1 RES1 0.0
27 H13	9.6976  13.6407  11.403 H	1 RES1 0.0
28 H14	9.2344  14.4553  12.6568 H	1 RES1 0.0
29 C13	7.3655  13.0113  14.3128 C.ar	1 RES1 0.0
30 C14	14.0409  9.6945  15.0603 C.ar	1 RES1 0.0
31 H15	14.6491  9.9267  15.7245 H	1 RES1 0.0
32 C15	8.1268  13.8741  15.2785 C.3	1 RES1 0.0
33 H16	9.0491  13.6076  15.2887 H	1 RES1 0.0
34 H17	8.0623  14.7924  15.006 H	1 RES1 0.0
35 H18	7.7549  13.7745  16.1572 H	1 RES1 0.0
36 C16	5.9867  12.8597  14.4512 C.ar	1 RES1 0.0
37 H19	5.5637  13.2662  15.1727 H	1 RES1 0.0
38 C17	12.2579  13.3684  11.787 C.3	1 RES1 0.0
39 H20	13.1306  13.4093  12.2072 H	1 RES1 0.0
40 H21	12.3291  13.7666  10.9054 H	1 RES1 0.0
41 C18	11.2537  14.1552  12.6213 C.3	1 RES1 0.0
42 H22	11.3517  15.1002  12.4255 H	1 RES1 0.0
43 H23	11.4537  14.0252  13.5617 H	1 RES1 0.0
44 C19	5.8685  11.5444  12.4693 C.ar	1 RES1 0.0
45 H24	5.3691  11.0612  11.8512 H	1 RES1 0.0
46 C20	13.2421  10.6891  14.4955 C.ar	1 RES1 0.0
47 C21	13.4555  12.1183  14.9223 C.3	1 RES1 0.0
48 H25	14.0141  12.5628  14.2823 H	1 RES1 0.0
49 H26	12.607  12.5666  14.9743 H	1 RES1 0.0
50 H27	13.8785  12.1352  15.784 H	1 RES1 0.0
51 C22	14.8223  7.3171  15.3127 C.3	1 RES1 0.0
52 H28	14.6572  6.4671  14.8974 H	1 RES1 0.0
53 H29	15.7474  7.5512  15.2073 H	1 RES1 0.0
54 H30	14.6102  7.2624  16.2476 H	1 RES1 0.0
55 C23	7.242  11.6644  12.2818 C.ar	1 RES1 0.0
@<TRIPOS>BOND
1 1 7 1
1 1 16 1
1 1 26 1
1 2 3 1
1 2 4 1
1 2 5 1
1 2 9 1
1 6 7 1
1 6 8 1
1 6 10 1
1 8 9 ar
1 8 46 ar
1 9 13 ar
1 10 11 1
1 10 12 1
1 10 38 1
1 13 14 1
1 13 15 ar
1 15 30 ar
1 15 51 1
1 16 29 ar
1 16 55 ar
1 17 18 1
1 17 19 1
1 17 20 1
1 17 21 1
1 21 36 ar
1 21 44 ar
1 22 23 1
1 22 24 1
1 22 25 1
1 22 55 1
1 26 27 1
1 26 28 1
1 26 41 1
1 29 32 1
1 29 36 ar
1 30 31 1
1 30 46 ar
1 32 33 1
1 32 34 1
1 32 35 1
1 36 37 1
1 38 39 1
1 38 40 1
1 38 41 1
1 41 42 1
1 41 43 1
1 44 45 1
1 44 55 ar
1 46 47 1
1 47 48 1
1 47 49 1
1 47 50 1
1 51 52 1
1 51 53 1
1 51 54 1
@<TRIPOS>SUBSTRUCTURE
1 RES1 55

