@<TRIPOS>MOLECULE

46	48	1
SMALL
PartialCharges
****
Generated from molSimplify

@<TRIPOS>ATOM
1 C1	12.0006  3.7162  10.284 C.3	1 RES1 0.0
2 C2	10.3598  1.9086  10.3097 C.ar	1 RES1 0.0
3 C3	10.6824  0.6021  9.9252 C.ar	1 RES1 0.0
4 C4	9.6983  -0.138  9.2745 C.ar	1 RES1 0.0
5 H1	9.8902  -1.0214  8.9838 H	1 RES1 0.0
6 C5	8.4564  0.3958  9.0494 C.ar	1 RES1 0.0
7 H2	7.8059  -0.1158  8.5826 H	1 RES1 0.0
8 C6	8.133  1.6687  9.4918 C.ar	1 RES1 0.0
9 H3	7.2595  2.0112  9.3401 H	1 RES1 0.0
10 C7	9.0756  2.4541  10.1592 C.ar	1 RES1 0.0
11 C8	8.7109  3.8155  10.6942 C.3	1 RES1 0.0
12 H4	9.1389  3.9493  11.5648 H	1 RES1 0.0
13 H5	7.7383  3.8761  10.7958 H	1 RES1 0.0
14 H6	9.0174  4.505  10.0692 H	1 RES1 0.0
15 C9	12.0323  0.0029  10.2145 C.3	1 RES1 0.0
16 H7	12.73  0.552  9.7979 H	1 RES1 0.0
17 H8	12.0723  -0.9059  9.8506 H	1 RES1 0.0
18 H9	12.1755  -0.0264  11.1842 H	1 RES1 0.0
19 C10	11.3741  5.2839  7.2143 C.2	1 RES1 0.0
20 C11	11.7528  6.4915  6.4415 C.ar	1 RES1 0.0
21 C12	12.4739  7.5197  7.0137 C.ar	1 RES1 0.0
22 H10	12.7039  7.48  7.9345 H	1 RES1 0.0
23 C13	12.8626  8.6005  6.2589 C.ar	1 RES1 0.0
24 H11	13.3736  9.2981  6.6524 H	1 RES1 0.0
25 C14	12.5053  8.6679  4.9266 C.ar	1 RES1 0.0
26 H12	12.7718  9.4128  4.3993 H	1 RES1 0.0
27 C15	11.7638  7.655  4.3633 C.ar	1 RES1 0.0
28 H13	11.5151  7.7072  3.449 H	1 RES1 0.0
29 C16	11.3821  6.5726  5.1079 C.ar	1 RES1 0.0
30 H14	10.8647  5.8802  4.7131 H	1 RES1 0.0
31 C17	10.386  4.2986  6.6537 C.ar	1 RES1 0.0
32 C18	9.0217  4.5433  6.754 C.ar	1 RES1 0.0
33 H15	8.7076  5.3449  7.1539 H	1 RES1 0.0
34 C19	8.1212  3.6088  6.2653 C.ar	1 RES1 0.0
35 H16	7.1876  3.7586  6.3489 H	1 RES1 0.0
36 C20	8.5884  2.4521  5.6544 C.ar	1 RES1 0.0
37 H17	7.9721  1.825  5.2918 H	1 RES1 0.0
38 C21	9.9227  2.2153  5.5721 C.ar	1 RES1 0.0
39 H18	10.2337  1.4093  5.1761 H	1 RES1 0.0
40 C22	10.837  3.1379  6.0608 C.ar	1 RES1 0.0
41 H19	11.7696  2.971  5.9862 H	1 RES1 0.0
42 N1	11.4991  4.014  9.0842 N.pl3	1 RES1 0.0
43 H20	10.8785  3.494  8.7357 H	1 RES1 0.0
44 N2	11.9326  5.1276  8.3691 N.2	1 RES1 0.0
45 N3	11.4072  2.7114  10.9025 N.pl3	1 RES1 0.0
46 H21	11.6636  2.5193  11.7217 H	1 RES1 0.0
@<TRIPOS>BOND
1 1 42 1
1 1 45 1
1 2 3 ar
1 2 10 ar
1 2 45 1
1 3 4 ar
1 3 15 1
1 4 5 1
1 4 6 ar
1 6 7 1
1 6 8 ar
1 8 9 1
1 8 10 ar
1 10 11 1
1 11 12 1
1 11 13 1
1 11 14 1
1 15 16 1
1 15 17 1
1 15 18 1
1 19 20 1
1 19 31 1
1 19 44 2
1 20 21 ar
1 20 29 ar
1 21 22 1
1 21 23 ar
1 23 24 1
1 23 25 ar
1 25 26 1
1 25 27 ar
1 27 28 1
1 27 29 ar
1 29 30 1
1 31 32 ar
1 31 40 ar
1 32 33 1
1 32 34 ar
1 34 35 1
1 34 36 ar
1 36 37 1
1 36 38 ar
1 38 39 1
1 38 40 ar
1 40 41 1
1 42 43 1
1 42 44 1
1 45 46 1
@<TRIPOS>SUBSTRUCTURE
1 RES1 46

