@<TRIPOS>MOLECULE

42	44	1
SMALL
PartialCharges
****
Generated from molSimplify

@<TRIPOS>ATOM
1 O1	10.1334  -3.9521  5.7654 O.2	1 RES1 0.0
2 N1	6.1036  -2.0672  5.557 N.pl3	1 RES1 0.0
3 N2	7.7591  -3.044  4.5761 N.pl3	1 RES1 0.0
4 N3	11.3062  -2.9765  4.0725 N.am	1 RES1 0.0
5 H1	11.2528  -2.6876  3.2431 H	1 RES1 0.0
6 C1	7.2169  -1.8269  4.8292 C.3	1 RES1 0.0
7 C2	6.9836  -4.0195  5.1874 C.2	1 RES1 0.0
8 H2	7.1632  -4.9525  5.1743 H	1 RES1 0.0
9 C3	5.9631  -3.4477  5.7873 C.2	1 RES1 0.0
10 H3	5.271  -3.8787  6.276 H	1 RES1 0.0
11 C4	5.2295  -1.0324  6.0991 C.3	1 RES1 0.0
12 H4	5.5215  -0.1527  5.7523 H	1 RES1 0.0
13 H5	5.3275  -1.0147  7.0844 H	1 RES1 0.0
14 C5	3.7835  -1.2313  5.7602 C.ar	1 RES1 0.0
15 C6	2.8798  -0.6097  6.4819 C.ar	1 RES1 0.0
16 H6	3.1642  -0.0805  7.2175 H	1 RES1 0.0
17 C7	1.5189  -0.7009  6.2095 C.ar	1 RES1 0.0
18 H7	0.8943  -0.2688  6.7796 H	1 RES1 0.0
19 C8	1.0895  -1.3817  5.1673 C.ar	1 RES1 0.0
20 H8	0.1681  -1.3722  4.9326 H	1 RES1 0.0
21 C9	1.9843  -2.1063  4.4114 C.ar	1 RES1 0.0
22 H9	1.6792  -2.671  3.7117 H	1 RES1 0.0
23 C10	3.3438  -1.995  4.6935 C.ar	1 RES1 0.0
24 H10	3.9751  -2.4496  4.1487 H	1 RES1 0.0
25 C11	8.9542  -3.263  3.8194 C.3	1 RES1 0.0
26 H11	9.0824  -2.5017  3.2002 H	1 RES1 0.0
27 H12	8.8375  -4.0787  3.2711 H	1 RES1 0.0
28 C12	10.1821  -3.4157  4.6497 C.2	1 RES1 0.0
29 C13	12.5913  -2.9421  4.711 C.3	1 RES1 0.0
30 H13	12.4821  -3.2334  5.6507 H	1 RES1 0.0
31 H14	12.9084  -2.0044  4.725 H	1 RES1 0.0
32 C14	13.6445  -3.7863  4.076 C.ar	1 RES1 0.0
33 C15	13.313  -4.9916  3.4629 C.ar	1 RES1 0.0
34 H15	12.4004  -5.2509  3.4165 H	1 RES1 0.0
35 C16	14.2621  -5.8073  2.927 C.ar	1 RES1 0.0
36 H16	14.0307  -6.6539  2.5617 H	1 RES1 0.0
37 C17	15.5909  -5.3633  2.934 C.ar	1 RES1 0.0
38 H17	16.2772  -5.9423  2.6152 H	1 RES1 0.0
39 C18	15.9044  -4.1557  3.3631 C.ar	1 RES1 0.0
40 H18	16.7644  -3.7863  3.202 H	1 RES1 0.0
41 C19	14.9128  -3.4406  4.0725 C.ar	1 RES1 0.0
42 H19	15.1747  -2.6757  4.5717 H	1 RES1 0.0
@<TRIPOS>BOND
1 1 28 2
1 2 6 un
1 2 9 1
1 2 11 1
1 3 6 un
1 3 7 1
1 3 25 1
1 4 5 1
1 4 28 am
1 4 29 1
1 7 8 1
1 7 9 2
1 9 10 1
1 11 12 1
1 11 13 1
1 11 14 1
1 14 15 ar
1 14 23 ar
1 15 16 1
1 15 17 ar
1 17 18 1
1 17 19 ar
1 19 20 1
1 19 21 ar
1 21 22 1
1 21 23 ar
1 23 24 1
1 25 26 1
1 25 27 1
1 25 28 1
1 29 30 1
1 29 31 1
1 29 32 1
1 32 33 ar
1 32 41 ar
1 33 34 1
1 33 35 ar
1 35 36 1
1 35 37 ar
1 37 38 1
1 37 39 ar
1 39 40 1
1 39 41 ar
1 41 42 1
@<TRIPOS>SUBSTRUCTURE
1 RES1 42

