@<TRIPOS>MOLECULE

44	46	1
SMALL
PartialCharges
****
Generated from molSimplify

@<TRIPOS>ATOM
1 S1	8.4311  17.1498  0.8765 S.3	1 RES1 0.0
2 N1	7.9048  19.146  5.4264 N.pl3	1 RES1 0.0
3 N2	7.5549  19.1972  3.3002 N.pl3	1 RES1 0.0
4 C1	6.9747  18.9156  4.4799 C.3	1 RES1 0.0
5 C2	9.114  19.5957  4.857 C.ar	1 RES1 0.0
6 C3	10.3315  19.9248  5.434 C.ar	1 RES1 0.0
7 H1	10.4811  19.8773  6.3711 H	1 RES1 0.0
8 C4	11.3259  20.3307  4.532 C.ar	1 RES1 0.0
9 H2	12.1698  20.6086  4.8684 H	1 RES1 0.0
10 C5	11.1136  20.3398  3.1837 C.ar	1 RES1 0.0
11 H3	11.8346  20.5775  2.6133 H	1 RES1 0.0
12 C6	9.895  20.0162  2.6057 C.ar	1 RES1 0.0
13 H4	9.7508  20.0656  1.6676 H	1 RES1 0.0
14 C7	8.9026  19.6213  3.4812 C.ar	1 RES1 0.0
15 C8	7.703  19.0107  6.8667 C.3	1 RES1 0.0
16 H5	8.4609  18.5024  7.2504 H	1 RES1 0.0
17 H6	6.8775  18.4896  7.0277 H	1 RES1 0.0
18 C9	7.5916  20.338  7.5792 C.ar	1 RES1 0.0
19 C10	8.581  20.7969  8.4111 C.ar	1 RES1 0.0
20 H7	9.3517  20.2521  8.5286 H	1 RES1 0.0
21 C11	8.5261  21.9999  9.0924 C.ar	1 RES1 0.0
22 H8	9.2252  22.2596  9.6808 H	1 RES1 0.0
23 C12	7.4291  22.8117  8.8925 C.ar	1 RES1 0.0
24 H9	7.3111  23.6015  9.4098 H	1 RES1 0.0
25 C13	6.51  22.4625  7.9326 C.ar	1 RES1 0.0
26 H10	5.8267  23.075  7.6863 H	1 RES1 0.0
27 C14	6.5763  21.2266  7.3272 C.ar	1 RES1 0.0
28 H11	5.8951  20.9797  6.7141 H	1 RES1 0.0
29 C15	6.9021  19.1149  1.9964 C.3	1 RES1 0.0
30 H12	7.3946  19.6908  1.3587 H	1 RES1 0.0
31 H13	5.9841  19.4769  2.0779 H	1 RES1 0.0
32 C16	6.8237  17.7601  1.4402 C.3	1 RES1 0.0
33 H14	6.1921  17.7601  0.6784 H	1 RES1 0.0
34 H15	6.4684  17.1476  2.13 H	1 RES1 0.0
35 C17	8.2174  15.3742  0.4444 C.3	1 RES1 0.0
36 H16	9.0614  15.0652  0.0057 H	1 RES1 0.0
37 C18	8.0559  14.588  1.7245 C.3	1 RES1 0.0
38 H17	7.2723  14.9171  2.2125 H	1 RES1 0.0
39 H18	8.8554  14.6977  2.2788 H	1 RES1 0.0
40 H19	7.9334  13.6391  1.5122 H	1 RES1 0.0
41 C19	7.0817  15.1219  -0.5221 C.3	1 RES1 0.0
42 H20	7.1897  14.237  -0.9286 H	1 RES1 0.0
43 H21	7.0912  15.8057  -1.2232 H	1 RES1 0.0
44 H22	6.2289  15.1584  -0.0417 H	1 RES1 0.0
@<TRIPOS>BOND
1 1 32 1
1 1 35 1
1 2 4 1
1 2 5 1
1 2 15 1
1 3 4 1
1 3 14 1
1 3 29 1
1 5 6 ar
1 5 14 ar
1 6 7 1
1 6 8 ar
1 8 9 1
1 8 10 ar
1 10 11 1
1 10 12 ar
1 12 13 1
1 12 14 ar
1 15 16 1
1 15 17 1
1 15 18 1
1 18 19 ar
1 18 27 ar
1 19 20 1
1 19 21 ar
1 21 22 1
1 21 23 ar
1 23 24 1
1 23 25 ar
1 25 26 1
1 25 27 ar
1 27 28 1
1 29 30 1
1 29 31 1
1 29 32 1
1 32 33 1
1 32 34 1
1 35 36 1
1 35 37 1
1 35 41 1
1 37 38 1
1 37 39 1
1 37 40 1
1 41 42 1
1 41 43 1
1 41 44 1
@<TRIPOS>SUBSTRUCTURE
1 RES1 44

