@<TRIPOS>MOLECULE

38	39	1
SMALL
PartialCharges
****
Generated from molSimplify

@<TRIPOS>ATOM
1 O1	18.9377  1.5435  20.2613 O.2	1 RES1 0.0
2 N1	21.6604  1.7987  16.933 N.pl3	1 RES1 0.0
3 N2	20.8841  0.5956  18.5273 N.pl3	1 RES1 0.0
4 N3	17.776  -0.3879  20.0384 N.am	1 RES1 0.0
5 C1	20.7326  0.8582  17.1956 C.3	1 RES1 0.0
6 C2	22.3715  2.1354  18.0759 C.2	1 RES1 0.0
7 H1	23.0682  2.7777  18.1408 H	1 RES1 0.0
8 C3	21.884  1.377  19.0743 C.2	1 RES1 0.0
9 H2	22.1714  1.3788  19.9791 H	1 RES1 0.0
10 C4	21.9224  2.3916  15.6048 C.3	1 RES1 0.0
11 H3	21.255  2.0119  14.9644 H	1 RES1 0.0
12 C5	23.3  2.0009  15.1174 C.3	1 RES1 0.0
13 H4	23.9779  2.3889  15.71 H	1 RES1 0.0
14 H5	23.4321  2.3376  14.2062 H	1 RES1 0.0
15 H6	23.3839  1.0247  15.1206 H	1 RES1 0.0
16 C6	21.7026  3.8857  15.6654 C.3	1 RES1 0.0
17 H7	20.7975  4.0696  15.9951 H	1 RES1 0.0
18 H8	21.8084  4.2681  14.7685 H	1 RES1 0.0
19 H9	22.358  4.2882  16.2723 H	1 RES1 0.0
20 C7	20.0654  -0.3404  19.2841 C.3	1 RES1 0.0
21 H10	20.6109  -0.7511  20.0014 H	1 RES1 0.0
22 H11	19.7505  -1.0631  18.6856 H	1 RES1 0.0
23 C8	18.8622  0.3696  19.9012 C.2	1 RES1 0.0
24 C9	16.5548  0.108  20.6428 C.3	1 RES1 0.0
25 H12	16.7927  0.7182  21.3857 H	1 RES1 0.0
26 H13	16.0591  -0.656  21.0305 H	1 RES1 0.0
27 C10	15.6431  0.8445  19.6801 C.ar	1 RES1 0.0
28 C11	16.1021  1.3834  18.4813 C.ar	1 RES1 0.0
29 H14	17.0035  1.2415  18.2157 H	1 RES1 0.0
30 C12	15.2578  2.1208  17.6757 C.ar	1 RES1 0.0
31 H15	15.5909  2.4977  16.8681 H	1 RES1 0.0
32 C13	13.9363  2.3202  18.0246 C.ar	1 RES1 0.0
33 H16	13.3585  2.8271  17.467 H	1 RES1 0.0
34 C14	13.4696  1.764  19.2097 C.ar	1 RES1 0.0
35 H17	12.5619  1.8857  19.4614 H	1 RES1 0.0
36 C15	14.3114  1.0375  20.019 C.ar	1 RES1 0.0
37 H18	13.9744  0.6615  20.8234 H	1 RES1 0.0
38 H19	17.8169  -1.1254  19.8007 H	1 RES1 0.0
@<TRIPOS>BOND
1 1 23 2
1 2 5 un
1 2 6 1
1 2 10 1
1 3 5 un
1 3 8 1
1 3 20 1
1 4 23 am
1 4 24 1
1 4 38 1
1 6 7 1
1 6 8 2
1 8 9 1
1 10 11 1
1 10 12 1
1 10 16 1
1 12 13 1
1 12 14 1
1 12 15 1
1 16 17 1
1 16 18 1
1 16 19 1
1 20 21 1
1 20 22 1
1 20 23 1
1 24 25 1
1 24 26 1
1 24 27 1
1 27 28 ar
1 27 36 ar
1 28 29 1
1 28 30 ar
1 30 31 1
1 30 32 ar
1 32 33 1
1 32 34 ar
1 34 35 1
1 34 36 ar
1 36 37 1
@<TRIPOS>SUBSTRUCTURE
1 RES1 38

