@<TRIPOS>MOLECULE

127	137	1
SMALL
PartialCharges
****
Generated from molSimplify

@<TRIPOS>ATOM
1 C1	13.8114  5.5162  4.9809 C.3	1 RES1 0.0
2 N1	13.9535  6.083  6.2245 N.pl3	1 RES1 0.0
3 C2	13.8438  5.1428  7.2316 C.2	1 RES1 0.0
4 H1	13.8981  5.301  8.1676 H	1 RES1 0.0
5 C3	13.6474  3.9633  6.6263 C.2	1 RES1 0.0
6 H2	13.548  3.1185  7.0497 H	1 RES1 0.0
7 N2	13.6131  4.2127  5.262 N.pl3	1 RES1 0.0
8 C4	14.2517  7.495  6.3832 C.ar	1 RES1 0.0
9 C5	13.2188  8.4172  6.2526 C.ar	1 RES1 0.0
10 C6	13.5537  9.7636  6.2824 C.ar	1 RES1 0.0
11 H3	12.8655  10.4103  6.1732 H	1 RES1 0.0
12 C7	14.863  10.1962  6.4659 C.ar	1 RES1 0.0
13 C8	15.8479  9.2232  6.6793 C.ar	1 RES1 0.0
14 H4	16.7388  9.5039  6.8529 H	1 RES1 0.0
15 C9	15.5726  7.8813  6.6429 C.ar	1 RES1 0.0
16 C10	11.7674  7.9218  6.2509 C.3	1 RES1 0.0
17 H5	11.7246  7.1383  5.6308 H	1 RES1 0.0
18 C11	11.4043  7.4205  7.6301 C.ar	1 RES1 0.0
19 C12	10.4079  6.4321  7.7806 C.ar	1 RES1 0.0
20 H6	9.9714  6.0908  7.01 H	1 RES1 0.0
21 C13	10.062  5.958  9.0143 C.ar	1 RES1 0.0
22 H7	9.3912  5.2918  9.0953 H	1 RES1 0.0
23 C14	10.6934  6.4537  10.1586 C.ar	1 RES1 0.0
24 H8	10.4551  6.119  11.0152 H	1 RES1 0.0
25 C15	11.6631  7.4302  10.0379 C.ar	1 RES1 0.0
26 H9	12.091  7.7729  10.8135 H	1 RES1 0.0
27 C16	12.0086  7.9074  8.7827 C.ar	1 RES1 0.0
28 H10	12.6734  8.5821  8.7083 H	1 RES1 0.0
29 C17	10.7627  8.9572  5.7416 C.ar	1 RES1 0.0
30 C18	10.5905  9.1201  4.3558 C.ar	1 RES1 0.0
31 H11	11.1115  8.6081  3.7489 H	1 RES1 0.0
32 C19	9.658  10.0304  3.8779 C.ar	1 RES1 0.0
33 H12	9.5521  10.1392  2.9403 H	1 RES1 0.0
34 C20	8.8846  10.7758  4.7362 C.ar	1 RES1 0.0
35 H13	8.2471  11.393  4.3988 H	1 RES1 0.0
36 C21	9.0511  10.6157  6.0938 C.ar	1 RES1 0.0
37 H14	8.5136  11.1194  6.6941 H	1 RES1 0.0
38 C22	9.9856  9.7348  6.5949 C.ar	1 RES1 0.0
39 H15	10.101  9.6569  7.5342 H	1 RES1 0.0
40 C23	15.2085  11.668  6.4543 C.3	1 RES1 0.0
41 H16	16.1726  11.7787  6.5949 H	1 RES1 0.0
42 H17	14.7199  12.1233  7.1721 H	1 RES1 0.0
43 H18	14.9575  12.0552  5.5911 H	1 RES1 0.0
44 C24	16.6275  6.8057  6.9471 C.3	1 RES1 0.0
45 H19	16.3691  6.0002  6.4147 H	1 RES1 0.0
46 C25	18.0382  7.167  6.5139 C.ar	1 RES1 0.0
47 C26	18.8673  7.9674  7.2878 C.ar	1 RES1 0.0
48 H20	18.5396  8.3241  8.1047 H	1 RES1 0.0
49 C27	20.1843  8.2596  6.886 C.ar	1 RES1 0.0
50 H21	20.7389  8.8139  7.4251 H	1 RES1 0.0
51 C28	20.6641  7.733  5.697 C.ar	1 RES1 0.0
52 H22	21.549  7.9287  5.4125 H	1 RES1 0.0
53 C29	19.8422  6.914  4.9197 C.ar	1 RES1 0.0
54 H23	20.1748  6.5383  4.1144 H	1 RES1 0.0
55 C30	18.5384  6.6494  5.3282 C.ar	1 RES1 0.0
56 H24	17.9808  6.1048  4.7841 H	1 RES1 0.0
57 C31	16.5546  6.392  8.4107 C.ar	1 RES1 0.0
58 C32	17.2867  5.2637  8.834 C.ar	1 RES1 0.0
59 H25	17.8148  4.7907  8.2023 H	1 RES1 0.0
60 C33	17.2558  4.8338  10.1355 C.ar	1 RES1 0.0
61 H26	17.7703  4.0781  10.3951 H	1 RES1 0.0
62 C34	16.4847  5.4871  11.0665 C.ar	1 RES1 0.0
63 H27	16.4765  5.195  11.9694 H	1 RES1 0.0
64 C35	15.718  6.5788  10.6762 C.ar	1 RES1 0.0
65 H28	15.1596  7.0231  11.303 H	1 RES1 0.0
66 C36	15.7785  7.0127  9.3665 C.ar	1 RES1 0.0
67 H29	15.2636  7.7687  9.1135 H	1 RES1 0.0
68 C37	13.4364  3.1576  4.2996 C.ar	1 RES1 0.0
69 C38	14.5248  2.8023  3.4711 C.ar	1 RES1 0.0
70 C39	14.3464  1.7196  2.6046 C.ar	1 RES1 0.0
71 H30	15.0771  1.45  2.0588 H	1 RES1 0.0
72 C40	13.1645  1.0281  2.5037 C.ar	1 RES1 0.0
73 C41	12.0991  1.413  3.3239 C.ar	1 RES1 0.0
74 H31	11.2716  0.9501  3.2594 H	1 RES1 0.0
75 C42	12.2229  2.4682  4.2384 C.ar	1 RES1 0.0
76 C43	15.8813  3.4982  3.5654 C.3	1 RES1 0.0
77 H32	15.7415  4.2954  4.1508 H	1 RES1 0.0
78 C44	16.8809  2.6154  4.2864 C.ar	1 RES1 0.0
79 C45	17.1365  2.836  5.6473 C.ar	1 RES1 0.0
80 H33	16.6762  3.5252  6.112 H	1 RES1 0.0
81 C46	18.069  2.0419  6.3221 C.ar	1 RES1 0.0
82 H34	18.2549  2.2162  7.2365 H	1 RES1 0.0
83 C47	18.7237  1.0102  5.6804 C.ar	1 RES1 0.0
84 H35	19.3433  0.4627  6.1501 H	1 RES1 0.0
85 C48	18.4562  0.7869  4.3211 C.ar	1 RES1 0.0
86 H36	18.8936  0.0772  3.863 H	1 RES1 0.0
87 C49	17.562  1.5869  3.6447 C.ar	1 RES1 0.0
88 H37	17.4067  1.4321  2.7203 H	1 RES1 0.0
89 C50	16.3971  4.0299  2.2507 C.ar	1 RES1 0.0
90 C51	17.7354  4.4738  2.1812 C.ar	1 RES1 0.0
91 H38	18.3042  4.3579  2.9336 H	1 RES1 0.0
92 C52	18.2339  5.0774  1.0385 C.ar	1 RES1 0.0
93 H39	19.1301  5.3931  1.0121 H	1 RES1 0.0
94 C53	17.3971  5.2179  -0.0777 C.ar	1 RES1 0.0
95 H40	17.7302  5.6157  -0.8731 H	1 RES1 0.0
96 C54	16.1045  4.7825  -0.0232 C.ar	1 RES1 0.0
97 H41	15.5496  4.8703  -0.7888 H	1 RES1 0.0
98 C55	15.5841  4.2107  1.146 C.ar	1 RES1 0.0
99 H42	14.6724  3.9451  1.1791 H	1 RES1 0.0
100 C56	12.995  -0.1276  1.5694 C.3	1 RES1 0.0
101 H43	13.8252  -0.2631  1.065 H	1 RES1 0.0
102 H44	12.2617  0.0608  0.9476 H	1 RES1 0.0
103 H45	12.7904  -0.9357  2.0836 H	1 RES1 0.0
104 C57	11.0581  2.8032  5.1926 C.3	1 RES1 0.0
105 H46	11.1731  3.7596  5.4621 H	1 RES1 0.0
106 C58	9.6968  2.7023  4.503 C.ar	1 RES1 0.0
107 C59	9.1272  3.8531  3.9722 C.ar	1 RES1 0.0
108 H47	9.5823  4.684  4.0515 H	1 RES1 0.0
109 C60	7.8915  3.8029  3.3239 C.ar	1 RES1 0.0
110 H48	7.515  4.5989  2.9684 H	1 RES1 0.0
111 C61	7.2211  2.6261  3.1966 C.ar	1 RES1 0.0
112 H49	6.3884  2.5929  2.7402 H	1 RES1 0.0
113 C62	7.7745  1.4652  3.7473 C.ar	1 RES1 0.0
114 H50	7.3133  0.639  3.6728 H	1 RES1 0.0
115 C63	8.998  1.5222  4.4021 C.ar	1 RES1 0.0
116 H51	9.3582  0.7318  4.7874 H	1 RES1 0.0
117 C64	11.0902  1.9849  6.4643 C.ar	1 RES1 0.0
118 C65	11.4343  0.6275  6.5106 C.ar	1 RES1 0.0
119 H52	11.7047  0.1957  5.7102 H	1 RES1 0.0
120 C66	11.3925  -0.0956  7.6715 C.ar	1 RES1 0.0
121 H53	11.5969  -1.0233  7.6599 H	1 RES1 0.0
122 C67	11.056  0.5255  8.8605 C.ar	1 RES1 0.0
123 H54	11.0448  0.0296  9.6708 H	1 RES1 0.0
124 C68	10.7374  1.8537  8.8671 C.ar	1 RES1 0.0
125 H55	10.5231  2.2873  9.684 H	1 RES1 0.0
126 C69	10.7288  2.5757  7.6698 C.ar	1 RES1 0.0
127 H56	10.4722  3.4905  7.6814 H	1 RES1 0.0
@<TRIPOS>BOND
1 1 2 1
1 1 7 1
1 2 3 1
1 2 8 1
1 3 4 1
1 3 5 2
1 5 6 1
1 5 7 1
1 7 68 1
1 8 9 ar
1 8 15 ar
1 9 10 ar
1 9 16 1
1 10 11 1
1 10 12 ar
1 12 13 ar
1 12 40 1
1 13 14 1
1 13 15 ar
1 15 44 1
1 16 17 1
1 16 18 1
1 16 29 1
1 18 19 ar
1 18 27 ar
1 19 20 1
1 19 21 ar
1 21 22 1
1 21 23 ar
1 23 24 1
1 23 25 ar
1 25 26 1
1 25 27 ar
1 27 28 1
1 29 30 ar
1 29 38 ar
1 30 31 1
1 30 32 ar
1 32 33 1
1 32 34 ar
1 34 35 1
1 34 36 ar
1 36 37 1
1 36 38 ar
1 38 39 1
1 40 41 1
1 40 42 1
1 40 43 1
1 44 45 1
1 44 46 1
1 44 57 1
1 46 47 ar
1 46 55 ar
1 47 48 1
1 47 49 ar
1 49 50 1
1 49 51 ar
1 51 52 1
1 51 53 ar
1 53 54 1
1 53 55 ar
1 55 56 1
1 57 58 ar
1 57 66 ar
1 58 59 1
1 58 60 ar
1 60 61 1
1 60 62 ar
1 62 63 1
1 62 64 ar
1 64 65 1
1 64 66 ar
1 66 67 1
1 68 69 ar
1 68 75 ar
1 69 70 ar
1 69 76 1
1 70 71 1
1 70 72 ar
1 72 73 ar
1 72 100 1
1 73 74 1
1 73 75 ar
1 75 104 1
1 76 77 1
1 76 78 1
1 76 89 1
1 78 79 ar
1 78 87 ar
1 79 80 1
1 79 81 ar
1 81 82 1
1 81 83 ar
1 83 84 1
1 83 85 ar
1 85 86 1
1 85 87 ar
1 87 88 1
1 89 90 ar
1 89 98 ar
1 90 91 1
1 90 92 ar
1 92 93 1
1 92 94 ar
1 94 95 1
1 94 96 ar
1 96 97 1
1 96 98 ar
1 98 99 1
1 100 101 1
1 100 102 1
1 100 103 1
1 104 105 1
1 104 106 1
1 104 117 1
1 106 107 ar
1 106 115 ar
1 107 108 1
1 107 109 ar
1 109 110 1
1 109 111 ar
1 111 112 1
1 111 113 ar
1 113 114 1
1 113 115 ar
1 115 116 1
1 117 118 ar
1 117 126 ar
1 118 119 1
1 118 120 ar
1 120 121 1
1 120 122 ar
1 122 123 1
1 122 124 ar
1 124 125 1
1 124 126 ar
1 126 127 1
@<TRIPOS>SUBSTRUCTURE
1 RES1 127

