@<TRIPOS>MOLECULE

57	63	1
SMALL
PartialCharges
****
Generated from molSimplify

@<TRIPOS>ATOM
1 N1	0.1375  6.2286  2.6486 N.pl3	1 RES1 0.0
2 C1	-0.8216  5.3764  3.1442 C.2	1 RES1 0.0
3 C2	-0.2356  7.5393  2.8386 C.2	1 RES1 0.0
4 C3	1.4189  5.7807  2.0274 C.3	1 RES1 0.0
5 C4	2.2474  6.9738  1.552 C.3	1 RES1 0.0
6 C5	3.5574  6.4797  0.9244 C.3	1 RES1 0.0
7 C6	4.3697  5.708  1.9682 C.3	1 RES1 0.0
8 C7	3.5462  4.5096  2.4562 C.3	1 RES1 0.0
9 C8	3.2187  3.5847  1.279 C.3	1 RES1 0.0
10 C9	2.4428  4.3709  0.2213 C.3	1 RES1 0.0
11 C10	1.1213  4.8611  0.8426 C.3	1 RES1 0.0
12 C11	3.2583  5.5693  -0.2629 C.3	1 RES1 0.0
13 C12	2.2414  5.0183  3.0763 C.3	1 RES1 0.0
14 H1	0.3204  8.0996  2.5405 H	1 RES1 0.0
15 H2	2.3482  7.6107  2.3141 H	1 RES1 0.0
16 H3	1.769  7.4653  0.9433 H	1 RES1 0.0
17 H4	3.9778  7.2936  0.6163 H	1 RES1 0.0
18 H5	4.5463  6.3158  2.6914 H	1 RES1 0.0
19 H6	5.2878  5.4834  1.6475 H	1 RES1 0.0
20 H7	4.0601  3.9375  3.2071 H	1 RES1 0.0
21 H8	2.6359  2.8408  1.5721 H	1 RES1 0.0
22 H9	3.92  3.1711  0.9181 H	1 RES1 0.0
23 H10	2.2173  3.8846  -0.5031 H	1 RES1 0.0
24 H11	0.56  5.4173  0.1887 H	1 RES1 0.0
25 H12	0.5615  4.0696  1.1696 H	1 RES1 0.0
26 H13	4.0411  5.2852  -0.6666 H	1 RES1 0.0
27 H14	2.7227  6.1176  -0.8678 H	1 RES1 0.0
28 H15	1.7243  4.3999  3.446 H	1 RES1 0.0
29 H16	2.4015  5.642  3.8233 H	1 RES1 0.0
30 C13	-1.4077  7.5393  3.4498 C.2	1 RES1 0.0
31 N2	-1.7808  6.2286  3.6397 N.pl3	1 RES1 0.0
32 C14	-3.0622  5.7807  4.261 C.3	1 RES1 0.0
33 C15	-3.8907  6.9738  4.7364 C.3	1 RES1 0.0
34 C16	-5.2007  6.4797  5.364 C.3	1 RES1 0.0
35 C17	-6.013  5.708  4.3201 C.3	1 RES1 0.0
36 C18	-5.1894  4.5096  3.8321 C.3	1 RES1 0.0
37 C19	-4.8619  3.5847  5.0093 C.3	1 RES1 0.0
38 C20	-4.086  4.3709  6.067 C.3	1 RES1 0.0
39 C21	-2.7645  4.8611  5.4457 C.3	1 RES1 0.0
40 C22	-3.8847  5.0183  3.2121 C.3	1 RES1 0.0
41 H17	-5.7033  3.9375  3.0813 H	1 RES1 0.0
42 H18	-3.3676  4.3999  2.8423 H	1 RES1 0.0
43 H19	-4.0447  5.642  2.465 H	1 RES1 0.0
44 H20	-2.2033  5.4173  6.0997 H	1 RES1 0.0
45 H21	-2.2047  4.0696  5.1187 H	1 RES1 0.0
46 C23	-4.9016  5.5693  6.5512 C.3	1 RES1 0.0
47 H22	-5.621  7.2936  5.6721 H	1 RES1 0.0
48 H23	-5.6844  5.2852  6.9549 H	1 RES1 0.0
49 H24	-4.366  6.1176  7.1561 H	1 RES1 0.0
50 H25	-3.8605  3.8846  6.7914 H	1 RES1 0.0
51 H26	-4.2791  2.8408  4.7163 H	1 RES1 0.0
52 H27	-5.5632  3.1711  5.3702 H	1 RES1 0.0
53 H28	-6.1896  6.3158  3.5969 H	1 RES1 0.0
54 H29	-6.9311  5.4834  4.6408 H	1 RES1 0.0
55 H30	-3.9915  7.6107  3.9742 H	1 RES1 0.0
56 H31	-3.4123  7.4653  5.3451 H	1 RES1 0.0
57 H32	-1.9637  8.0996  3.7478 H	1 RES1 0.0
@<TRIPOS>BOND
1 1 2 1
1 1 3 1
1 1 4 1
1 2 31 1
1 3 14 1
1 3 30 2
1 4 5 1
1 4 11 1
1 4 13 1
1 5 6 1
1 5 15 1
1 5 16 1
1 6 7 1
1 6 12 1
1 6 17 1
1 7 8 1
1 7 18 1
1 7 19 1
1 8 9 1
1 8 13 1
1 8 20 1
1 9 10 1
1 9 21 1
1 9 22 1
1 10 11 1
1 10 12 1
1 10 23 1
1 11 24 1
1 11 25 1
1 12 26 1
1 12 27 1
1 13 28 1
1 13 29 1
1 30 31 1
1 30 57 1
1 31 32 1
1 32 33 1
1 32 39 1
1 32 40 1
1 33 34 1
1 33 55 1
1 33 56 1
1 34 35 1
1 34 46 1
1 34 47 1
1 35 36 1
1 35 53 1
1 35 54 1
1 36 37 1
1 36 40 1
1 36 41 1
1 37 38 1
1 37 51 1
1 37 52 1
1 38 39 1
1 38 46 1
1 38 50 1
1 39 44 1
1 39 45 1
1 40 42 1
1 40 43 1
1 46 48 1
1 46 49 1
@<TRIPOS>SUBSTRUCTURE
1 RES1 57

