@<TRIPOS>MOLECULE

40	41	1
SMALL
PartialCharges
****
Generated from molSimplify

@<TRIPOS>ATOM
1 C1	0.2783  -0.4051  9.154 C.3	1 RES1 0.0
2 C2	0.8122  -0.1776  11.3376 C.2	1 RES1 0.0
3 H1	0.9906  0.2264  12.1791 H	1 RES1 0.0
4 C3	0.86  -1.4799  11.0626 C.2	1 RES1 0.0
5 H2	1.075  -2.18  11.6674 H	1 RES1 0.0
6 C4	0.3488  1.9296  10.0426 C.3	1 RES1 0.0
7 H3	-0.0822  2.293  10.8556 H	1 RES1 0.0
8 H4	-0.2325  2.1444  9.2702 H	1 RES1 0.0
9 C5	1.6847  2.602  9.8531 C.3	1 RES1 0.0
10 H5	2.09  2.2895  9.0061 H	1 RES1 0.0
11 H6	2.2881  2.3428  10.5948 H	1 RES1 0.0
12 C6	1.5522  4.1133  9.8191 C.3	1 RES1 0.0
13 H7	1.1758  4.419  10.6814 H	1 RES1 0.0
14 H8	2.4556  4.5092  9.7281 H	1 RES1 0.0
15 C7	0.6937  4.6223  8.7125 C.3	1 RES1 0.0
16 H9	1.0096  4.2574  7.8601 H	1 RES1 0.0
17 H10	0.7405  5.5997  8.6873 H	1 RES1 0.0
18 H11	-0.2332  4.3422  8.8648 H	1 RES1 0.0
19 C8	0.5983  -2.8574  8.9919 C.ar	1 RES1 0.0
20 C9	-0.569  -3.5964  8.8232 C.ar	1 RES1 0.0
21 C10	-0.4835  -4.7646  8.0595 C.ar	1 RES1 0.0
22 H12	-1.2684  -5.2821  7.9269 H	1 RES1 0.0
23 C11	0.6977  -5.1948  7.4887 C.ar	1 RES1 0.0
24 C12	1.8423  -4.4553  7.7242 C.ar	1 RES1 0.0
25 H13	2.6668  -4.7584  7.3616 H	1 RES1 0.0
26 C13	1.8289  -3.2725  8.4791 C.ar	1 RES1 0.0
27 C14	-1.8547  -3.1717  9.4619 C.3	1 RES1 0.0
28 H14	-2.5519  -3.8326  9.2658 H	1 RES1 0.0
29 H15	-2.1237  -2.2985  9.1069 H	1 RES1 0.0
30 H16	-1.7316  -3.1047  10.4315 H	1 RES1 0.0
31 C15	0.7538  -6.459  6.6461 C.3	1 RES1 0.0
32 H17	0.232  -7.1646  7.0822 H	1 RES1 0.0
33 H18	1.6842  -6.749  6.5552 H	1 RES1 0.0
34 H19	0.3795  -6.276  5.7587 H	1 RES1 0.0
35 C16	3.0913  -2.5134  8.7574 C.3	1 RES1 0.0
36 H20	2.8791  -1.5677  8.9031 H	1 RES1 0.0
37 H21	3.6982  -2.5985  7.9927 H	1 RES1 0.0
38 H22	3.5224  -2.8792  9.5583 H	1 RES1 0.0
39 N1	0.4544  0.4834  10.1686 N.pl3	1 RES1 0.0
40 N2	0.5311  -1.6136  9.7161 N.pl3	1 RES1 0.0
@<TRIPOS>BOND
1 1 39 1
1 1 40 1
1 2 3 1
1 2 4 2
1 2 39 1
1 4 5 1
1 4 40 1
1 6 7 1
1 6 8 1
1 6 9 1
1 6 39 1
1 9 10 1
1 9 11 1
1 9 12 1
1 12 13 1
1 12 14 1
1 12 15 1
1 15 16 1
1 15 17 1
1 15 18 1
1 19 20 ar
1 19 26 ar
1 19 40 1
1 20 21 ar
1 20 27 1
1 21 22 1
1 21 23 ar
1 23 24 ar
1 23 31 1
1 24 25 1
1 24 26 ar
1 26 35 1
1 27 28 1
1 27 29 1
1 27 30 1
1 31 32 1
1 31 33 1
1 31 34 1
1 35 36 1
1 35 37 1
1 35 38 1
@<TRIPOS>SUBSTRUCTURE
1 RES1 40

