@<TRIPOS>MOLECULE

72	76	1
SMALL
PartialCharges
****
Generated from molSimplify

@<TRIPOS>ATOM
1 O1	3.0306  8.8175  3.3044 O.3	1 RES1 0.0
2 O2	4.7829  7.9263  6.3846 O.3	1 RES1 0.0
3 O3	4.468  9.6548  7.7578 O.2	1 RES1 0.0
4 O4	6.7213  9.3872  4.8855 O.3	1 RES1 0.0
5 O5	8.0515  7.6033  5.0934 O.2	1 RES1 0.0
6 O6	6.5078  8.7128  2.1282 O.3	1 RES1 0.0
7 O7	6.017  10.2754  0.5909 O.2	1 RES1 0.0
8 O8	4.2139  7.1847  2.1045 O.3	1 RES1 0.0
9 N1	-0.8804  6.6628  4.2491 N.pl3	1 RES1 0.0
10 N2	0.7579  7.9368  4.7889 N.pl3	1 RES1 0.0
11 C1	0.1947  6.7511  5.0661 C.3	1 RES1 0.0
12 C2	-0.9993  7.8022  3.4868 C.2	1 RES1 0.0
13 H1	-1.6842  7.9906  2.8576 H	1 RES1 0.0
14 C3	0.0299  8.5977  3.8023 C.2	1 RES1 0.0
15 H2	0.227  9.447  3.4266 H	1 RES1 0.0
16 C4	1.9796  8.4751  5.3743 C.3	1 RES1 0.0
17 H3	2.0875  8.1117  6.2879 H	1 RES1 0.0
18 H4	1.8967  9.459  5.4454 H	1 RES1 0.0
19 C5	3.1939  8.1476  4.5737 C.3	1 RES1 0.0
20 H5	3.2717  7.1593  4.4424 H	1 RES1 0.0
21 C6	4.471  8.7053  5.232 C.3	1 RES1 0.0
22 H6	4.3313  9.6608  5.4928 H	1 RES1 0.0
23 C7	5.6673  8.5902  4.2983 C.3	1 RES1 0.0
24 H7	5.9603  7.6347  4.2491 H	1 RES1 0.0
25 C8	5.3626  9.0926  2.9087 C.3	1 RES1 0.0
26 H8	5.3006  10.0914  2.9306 H	1 RES1 0.0
27 C9	4.0835  8.5394  2.3726 C.3	1 RES1 0.0
28 H9	3.8728  9.0089  1.5154 H	1 RES1 0.0
29 C10	4.8608  8.5319  7.5517 C.2	1 RES1 0.0
30 C11	5.4906  7.6198  8.6222 C.ar	1 RES1 0.0
31 C12	6.4585  6.7211  8.2319 C.ar	1 RES1 0.0
32 H10	6.7316  6.6419  7.3237 H	1 RES1 0.0
33 C13	7.0145  5.9361  9.2331 C.ar	1 RES1 0.0
34 H11	7.622  5.2483  8.9887 H	1 RES1 0.0
35 C14	6.741  6.1021  10.4951 C.ar	1 RES1 0.0
36 H12	7.2276  5.6177  11.1516 H	1 RES1 0.0
37 C15	5.7725  6.9574  10.8744 C.ar	1 RES1 0.0
38 H13	5.5125  6.9993  11.7862 H	1 RES1 0.0
39 C16	5.1212  7.8157  9.906 C.ar	1 RES1 0.0
40 H14	4.4805  8.4706  10.1577 H	1 RES1 0.0
41 C17	7.8477  8.7846  5.263 C.2	1 RES1 0.0
42 C18	8.7517  9.7416  5.9706 C.ar	1 RES1 0.0
43 C19	8.4068  11.0275  6.2514 C.ar	1 RES1 0.0
44 H15	7.5448  11.343  6.0089 H	1 RES1 0.0
45 C20	9.2989  11.8887  6.8897 C.ar	1 RES1 0.0
46 H16	9.0523  12.7844  7.0867 H	1 RES1 0.0
47 C21	10.5525  11.4088  7.2307 C.ar	1 RES1 0.0
48 H17	11.1711  11.9919  7.6556 H	1 RES1 0.0
49 C22	10.9263  10.1109  6.9736 C.ar	1 RES1 0.0
50 H18	11.7921  9.8058  7.2143 H	1 RES1 0.0
51 C23	10.0163  9.2406  6.3536 C.ar	1 RES1 0.0
52 H19	10.2462  8.333  6.1949 H	1 RES1 0.0
53 C24	6.7619  9.3872  0.9957 C.2	1 RES1 0.0
54 C25	7.9709  8.9266  0.3319 C.ar	1 RES1 0.0
55 C26	8.438  9.6189  -0.7641 C.ar	1 RES1 0.0
56 H20	7.9784  10.3785  -1.1015 H	1 RES1 0.0
57 C27	9.6579  9.142  -1.3841 C.ar	1 RES1 0.0
58 H21	10.0152  9.6204  -2.1245 H	1 RES1 0.0
59 C28	10.3084  8.034  -0.9428 C.ar	1 RES1 0.0
60 H22	11.0989  7.7334  -1.375 H	1 RES1 0.0
61 C29	9.8005  7.3566  0.1459 C.ar	1 RES1 0.0
62 H23	10.2382  6.5761  0.4632 H	1 RES1 0.0
63 C30	8.6442  7.8157  0.7787 C.ar	1 RES1 0.0
64 H24	8.3151  7.3477  1.5373 H	1 RES1 0.0
65 C31	3.036  6.6419  1.4735 C.3	1 RES1 0.0
66 H25	2.313  6.5836  2.1318 H	1 RES1 0.0
67 H26	3.2353  5.7492  1.1252 H	1 RES1 0.0
68 H27	2.7616  7.2265  0.7368 H	1 RES1 0.0
69 C32	-1.7919  5.5399  4.1962 C.3	1 RES1 0.0
70 H28	-1.2952  4.7085  4.3476 H	1 RES1 0.0
71 H29	-2.2198  5.507  3.3154 H	1 RES1 0.0
72 H30	-2.4768  5.6431  4.8892 H	1 RES1 0.0
@<TRIPOS>BOND
1 1 19 1
1 1 27 1
1 2 21 1
1 2 29 1
1 3 29 2
1 4 23 1
1 4 41 1
1 5 41 2
1 6 25 1
1 6 53 1
1 7 53 2
1 8 27 1
1 8 65 1
1 9 11 1
1 9 12 1
1 9 69 1
1 10 11 1
1 10 14 1
1 10 16 1
1 12 13 1
1 12 14 2
1 14 15 1
1 16 17 1
1 16 18 1
1 16 19 1
1 19 20 1
1 19 21 1
1 21 22 1
1 21 23 1
1 23 24 1
1 23 25 1
1 25 26 1
1 25 27 1
1 27 28 1
1 29 30 1
1 30 31 ar
1 30 39 ar
1 31 32 1
1 31 33 ar
1 33 34 1
1 33 35 ar
1 35 36 1
1 35 37 ar
1 37 38 1
1 37 39 ar
1 39 40 1
1 41 42 1
1 42 43 ar
1 42 51 ar
1 43 44 1
1 43 45 ar
1 45 46 1
1 45 47 ar
1 47 48 1
1 47 49 ar
1 49 50 1
1 49 51 ar
1 51 52 1
1 53 54 1
1 54 55 ar
1 54 63 ar
1 55 56 1
1 55 57 ar
1 57 58 1
1 57 59 ar
1 59 60 1
1 59 61 ar
1 61 62 1
1 61 63 ar
1 63 64 1
1 65 66 1
1 65 67 1
1 65 68 1
1 69 70 1
1 69 71 1
1 69 72 1
@<TRIPOS>SUBSTRUCTURE
1 RES1 72

