@<TRIPOS>MOLECULE

43	45	1
SMALL
PartialCharges
****
Generated from molSimplify

@<TRIPOS>ATOM
1 Br1	11.6553  12.5076  11.3623 Br	1 RES1 0.0
2 Br2	-1.3838  8.7265  11.5107 Br	1 RES1 0.0
3 N1	5.7903  12.3571  9.9424 N.pl3	1 RES1 0.0
4 N2	3.7273  11.6749  10.1223 N.pl3	1 RES1 0.0
5 C1	4.9691  11.5452  10.6004 C.3	1 RES1 0.0
6 C2	5.0592  13.206  8.9457 C.3	1 RES1 0.0
7 H1	5.4418  13.1149  8.0584 H	1 RES1 0.0
8 H2	5.0733  14.1414  9.2033 H	1 RES1 0.0
9 C3	3.6572  12.6504  8.9933 C.3	1 RES1 0.0
10 H3	3.0103  13.3496  9.1715 H	1 RES1 0.0
11 H4	3.4269  12.2089  8.1607 H	1 RES1 0.0
12 C4	7.1823  12.5145  10.207 C.ar	1 RES1 0.0
13 C5	8.1116  11.8771  9.355 C.ar	1 RES1 0.0
14 C6	9.4355  11.8941  9.6831 C.ar	1 RES1 0.0
15 H5	10.0564  11.4356  9.1644 H	1 RES1 0.0
16 C7	9.8401  12.6041  10.798 C.ar	1 RES1 0.0
17 C8	8.9608  13.3403  11.5777 C.ar	1 RES1 0.0
18 H6	9.2653  13.8404  12.2992 H	1 RES1 0.0
19 C9	7.6089  13.3141  11.2478 C.ar	1 RES1 0.0
20 C10	7.673  11.1362  8.0972 C.3	1 RES1 0.0
21 H7	6.8598  10.6577  8.2736 H	1 RES1 0.0
22 H8	8.358  10.5173  7.8343 H	1 RES1 0.0
23 H9	7.5248  11.769  7.3898 H	1 RES1 0.0
24 C11	6.6335  14.1676  12.0576 C.3	1 RES1 0.0
25 H10	5.9505  14.5118  11.4772 H	1 RES1 0.0
26 H11	7.1062  14.8977  12.4633 H	1 RES1 0.0
27 H12	6.2289  13.6289  12.742 H	1 RES1 0.0
28 C12	2.5577  10.9695  10.4681 C.ar	1 RES1 0.0
29 C13	1.5883  11.6162  11.239 C.ar	1 RES1 0.0
30 C14	0.3946  10.9494  11.5389 C.ar	1 RES1 0.0
31 H13	-0.2664  11.3693  12.0417 H	1 RES1 0.0
32 C15	0.2123  9.6792  11.0855 C.ar	1 RES1 0.0
33 C16	1.1476  9.0294  10.3093 C.ar	1 RES1 0.0
34 H14	0.9874  8.1635  10.0094 H	1 RES1 0.0
35 C17	2.3253  9.6761  9.983 C.ar	1 RES1 0.0
36 C18	3.3428  9.0016  9.0692 C.3	1 RES1 0.0
37 H15	3.463  9.5325  8.2789 H	1 RES1 0.0
38 H16	3.0223  8.1295  8.8257 H	1 RES1 0.0
39 H17	4.18  8.9182  9.5314 H	1 RES1 0.0
40 C19	1.7105  13.0316  11.7541 C.3	1 RES1 0.0
41 H18	2.5877  13.3696  11.5566 H	1 RES1 0.0
42 H19	1.5723  13.0393  12.705 H	1 RES1 0.0
43 H20	1.0515  13.5842  11.329 H	1 RES1 0.0
@<TRIPOS>BOND
1 1 16 1
1 2 32 1
1 3 5 1
1 3 6 1
1 3 12 1
1 4 5 1
1 4 9 1
1 4 28 1
1 6 7 1
1 6 8 1
1 6 9 1
1 9 10 1
1 9 11 1
1 12 13 ar
1 12 19 ar
1 13 14 ar
1 13 20 1
1 14 15 1
1 14 16 ar
1 16 17 ar
1 17 18 1
1 17 19 ar
1 19 24 1
1 20 21 1
1 20 22 1
1 20 23 1
1 24 25 1
1 24 26 1
1 24 27 1
1 28 29 ar
1 28 35 ar
1 29 30 ar
1 29 40 1
1 30 31 1
1 30 32 ar
1 32 33 ar
1 33 34 1
1 33 35 ar
1 35 36 1
1 36 37 1
1 36 38 1
1 36 39 1
1 40 41 1
1 40 42 1
1 40 43 1
@<TRIPOS>SUBSTRUCTURE
1 RES1 43

