@<TRIPOS>MOLECULE

46	49	1
SMALL
PartialCharges
****
Generated from molSimplify

@<TRIPOS>ATOM
1 N1	5.5084  7.6915  7.0749 N.pl3	1 RES1 0.0
2 N2	7.4033  8.4812  6.4921 N.pl3	1 RES1 0.0
3 C1	6.7541  7.9018  7.5178 C.3	1 RES1 0.0
4 C2	5.3893  8.1419  5.7808 C.2	1 RES1 0.0
5 H1	4.6228  8.1066  5.2554 H	1 RES1 0.0
6 C3	6.5641  8.6354  5.4178 C.2	1 RES1 0.0
7 H2	6.7786  9.0125  4.5942 H	1 RES1 0.0
8 C4	4.4081  7.1348  7.8881 C.3	1 RES1 0.0
9 H3	3.6445  7.7311  7.8383 H	1 RES1 0.0
10 H4	4.6897  7.0895  8.8148 H	1 RES1 0.0
11 C5	3.9936  5.7776  7.4398 C.3	1 RES1 0.0
12 H5	3.0886  5.6061  7.7454 H	1 RES1 0.0
13 H6	3.9886  5.7521  6.4702 H	1 RES1 0.0
14 C6	4.881  4.7143  7.9443 C.3	1 RES1 0.0
15 H7	4.8869  4.7619  8.9137 H	1 RES1 0.0
16 H8	5.7824  4.9056  7.6416 H	1 RES1 0.0
17 C7	4.5398  3.2723  7.5414 C.3	1 RES1 0.0
18 H9	3.6058  3.11  7.696 H	1 RES1 0.0
19 H10	5.0618  2.6612  8.0653 H	1 RES1 0.0
20 H11	4.7362  3.1458  6.6103 H	1 RES1 0.0
21 C8	8.8288  8.8492  6.5268 C.3	1 RES1 0.0
22 H12	9.3551  8.1016  6.2029 H	1 RES1 0.0
23 H13	9.0883  9.0168  7.4466 H	1 RES1 0.0
24 C9	9.1471  10.0666  5.6992 C.ar	1 RES1 0.0
25 C10	9.8421  9.9424  4.4885 C.ar	1 RES1 0.0
26 C11	10.1913  8.7035  3.886 C.ar	1 RES1 0.0
27 H14	9.9598  7.9124  4.3158 H	1 RES1 0.0
28 C12	10.8496  8.6413  2.7044 C.ar	1 RES1 0.0
29 H15	11.0351  7.8118  2.3262 H	1 RES1 0.0
30 C13	11.255  9.8026  2.0492 C.ar	1 RES1 0.0
31 H16	11.7377  9.7449  1.2571 H	1 RES1 0.0
32 C14	10.9527  10.9901  2.5574 C.ar	1 RES1 0.0
33 H17	11.2218  11.7544  2.1001 H	1 RES1 0.0
34 C15	10.2302  11.1371  3.7771 C.ar	1 RES1 0.0
35 C16	9.8673  12.3664  4.2798 C.ar	1 RES1 0.0
36 H18	10.1309  13.1342  3.8261 H	1 RES1 0.0
37 C17	9.1311  12.4955  5.4287 C.ar	1 RES1 0.0
38 C18	8.7212  13.7619  5.9424 C.ar	1 RES1 0.0
39 H19	8.9754  14.5364  5.4945 H	1 RES1 0.0
40 C19	7.9769  13.8646  7.0586 C.ar	1 RES1 0.0
41 H20	7.7226  14.7053  7.3652 H	1 RES1 0.0
42 C20	7.5819  12.7237  7.7665 C.ar	1 RES1 0.0
43 H21	7.0506  12.8098  8.5245 H	1 RES1 0.0
44 C21	7.9701  11.4967  7.3508 C.ar	1 RES1 0.0
45 H22	7.7193  10.751  7.847 H	1 RES1 0.0
46 C22	8.7509  11.3163  6.1729 C.ar	1 RES1 0.0
@<TRIPOS>BOND
1 1 3 1
1 1 4 1
1 1 8 1
1 2 3 1
1 2 6 1
1 2 21 1
1 4 5 1
1 4 6 2
1 6 7 1
1 8 9 1
1 8 10 1
1 8 11 1
1 11 12 1
1 11 13 1
1 11 14 1
1 14 15 1
1 14 16 1
1 14 17 1
1 17 18 1
1 17 19 1
1 17 20 1
1 21 22 1
1 21 23 1
1 21 24 1
1 24 25 ar
1 24 46 ar
1 25 26 ar
1 25 34 ar
1 26 27 1
1 26 28 ar
1 28 29 1
1 28 30 ar
1 30 31 1
1 30 32 ar
1 32 33 1
1 32 34 ar
1 34 35 ar
1 35 36 1
1 35 37 ar
1 37 38 ar
1 37 46 ar
1 38 39 1
1 38 40 ar
1 40 41 1
1 40 42 ar
1 42 43 1
1 42 44 ar
1 44 45 1
1 44 46 ar
@<TRIPOS>SUBSTRUCTURE
1 RES1 46

