@<TRIPOS>MOLECULE

81	85	1
SMALL
PartialCharges
****
Generated from molSimplify

@<TRIPOS>ATOM
1 O1	21.7136  12.5048  15.2177 O.3	1 RES1 0.0
2 O2	18.7218  14.3755  16.1844 O.3	1 RES1 0.0
3 O3	17.1313  12.9091  15.8156 O.2	1 RES1 0.0
4 O4	18.8909  14.8639  13.3856 O.3	1 RES1 0.0
5 O5	18.97  17.0055  14.0727 O.2	1 RES1 0.0
6 O6	21.5614  14.6956  12.314 O.3	1 RES1 0.0
7 O7	20.3692  13.7577  10.697 O.2	1 RES1 0.0
8 O8	22.9541  14.3673  14.5289 O.3	1 RES1 0.0
9 N1	23.1801  12.4186  19.7454 N.pl3	1 RES1 0.0
10 N2	21.7578  12.1949  18.1546 N.pl3	1 RES1 0.0
11 C1	21.8746  12.7121  19.4185 C.3	1 RES1 0.0
12 C2	23.7937  11.7495  18.7175 C.2	1 RES1 0.0
13 H1	24.6934  11.4458  18.7245 H	1 RES1 0.0
14 C3	22.9533  11.5915  17.7211 C.2	1 RES1 0.0
15 H2	23.1171  11.1626  16.8889 H	1 RES1 0.0
16 C4	20.5685  12.3498  17.3504 C.3	1 RES1 0.0
17 H3	19.8513  12.7654  17.8941 H	1 RES1 0.0
18 H4	20.2486  11.4612  17.0515 H	1 RES1 0.0
19 C5	20.868  13.2364  16.1215 C.3	1 RES1 0.0
20 H5	21.3411  14.0625  16.4222 H	1 RES1 0.0
21 C6	19.6065  13.6356  15.3366 C.3	1 RES1 0.0
22 H6	19.1449  12.8198  14.9869 H	1 RES1 0.0
23 C7	20.0372  14.5253  14.188 C.3	1 RES1 0.0
24 H7	20.451  15.3606  14.5499 H	1 RES1 0.0
25 C8	21.0367  13.8008  13.3087 C.3	1 RES1 0.0
26 H8	20.5837  13.0322  12.8559 H	1 RES1 0.0
27 C9	22.2119  13.2826  14.1286 C.3	1 RES1 0.0
28 H9	22.7798  12.6987  13.5465 H	1 RES1 0.0
29 C10	24.2539  14.0184  15.0429 C.3	1 RES1 0.0
30 H10	24.1551  13.6212  15.9344 H	1 RES1 0.0
31 H11	24.809  14.8249  15.1041 H	1 RES1 0.0
32 H12	24.6799  13.3729  14.4433 H	1 RES1 0.0
33 C11	17.4838  13.9691  16.3488 C.2	1 RES1 0.0
34 C12	16.6736  14.8167  17.1564 C.ar	1 RES1 0.0
35 C13	17.1726  16.0081  17.6599 C.ar	1 RES1 0.0
36 H13	18.0802  16.2533  17.5095 H	1 RES1 0.0
37 C14	16.3269  16.8403  18.3888 C.ar	1 RES1 0.0
38 H14	16.6466  17.6869  18.679 H	1 RES1 0.0
39 C15	15.0866  16.4801  18.6878 C.ar	1 RES1 0.0
40 H15	14.5418  17.0609  19.2087 H	1 RES1 0.0
41 C16	14.5536  15.2333  18.242 C.ar	1 RES1 0.0
42 H16	13.6688  14.9635  18.4623 H	1 RES1 0.0
43 C17	15.3725  14.4442  17.4798 C.ar	1 RES1 0.0
44 H17	15.0412  13.6141  17.1599 H	1 RES1 0.0
45 C18	18.4769  16.1466  13.3716 C.2	1 RES1 0.0
46 C19	17.3781  16.3426  12.3297 C.ar	1 RES1 0.0
47 C20	17.0195  15.4098  11.4749 C.ar	1 RES1 0.0
48 H18	17.4319  14.554  11.4924 H	1 RES1 0.0
49 C21	16.0545  15.69  10.5711 C.ar	1 RES1 0.0
50 H19	15.8  15.0486  9.9208 H	1 RES1 0.0
51 C22	15.4382  16.9419  10.6096 C.ar	1 RES1 0.0
52 H20	14.7518  17.1533  9.9855 H	1 RES1 0.0
53 C23	15.8048  17.8501  11.5116 C.ar	1 RES1 0.0
54 H21	15.3675  18.6936  11.5221 H	1 RES1 0.0
55 C24	16.7379  17.6151  12.3752 C.ar	1 RES1 0.0
56 H22	16.9864  18.2687  13.0203 H	1 RES1 0.0
57 C25	21.2179  14.5417  11.0361 C.2	1 RES1 0.0
58 C26	21.9327  15.4591  10.1533 C.ar	1 RES1 0.0
59 C27	21.5061  15.5843  8.8824 C.ar	1 RES1 0.0
60 H23	20.7431  15.1092  8.5695 H	1 RES1 0.0
61 C28	22.2368  16.4596  8.0293 C.ar	1 RES1 0.0
62 H24	21.9616  16.5612  7.1272 H	1 RES1 0.0
63 C29	23.3055  17.1441  8.4681 C.ar	1 RES1 0.0
64 H25	23.739  17.7403  7.8702 H	1 RES1 0.0
65 C30	23.783  17.0219  9.718 C.ar	1 RES1 0.0
66 H26	24.5497  17.4991  10.0134 H	1 RES1 0.0
67 C31	23.0651  16.122  10.5798 C.ar	1 RES1 0.0
68 H27	23.3806  15.9814  11.4662 H	1 RES1 0.0
69 C32	23.8063  12.8301  20.9709 C.3	1 RES1 0.0
70 H28	24.2757  12.0564  21.3729 H	1 RES1 0.0
71 H29	23.1142  13.1318  21.6072 H	1 RES1 0.0
72 C33	24.7982  13.9517  20.7436 C.3	1 RES1 0.0
73 H30	24.3256  14.7244  20.3485 H	1 RES1 0.0
74 H31	25.478  13.651  20.0881 H	1 RES1 0.0
75 C34	25.517  14.4114  22.0215 C.3	1 RES1 0.0
76 H32	24.8736  14.9399  22.5582 H	1 RES1 0.0
77 H33	25.752  13.6069  22.5477 H	1 RES1 0.0
78 C35	26.7036  15.1923  21.8519 C.3	1 RES1 0.0
79 H34	26.7384  15.5381  20.9359 H	1 RES1 0.0
80 H35	27.489  14.632  22.0215 H	1 RES1 0.0
81 H36	26.6954  15.9414  22.4848 H	1 RES1 0.0
@<TRIPOS>BOND
1 1 19 1
1 1 27 1
1 2 21 1
1 2 33 1
1 3 33 2
1 4 23 1
1 4 45 1
1 5 45 2
1 6 25 1
1 6 57 1
1 7 57 2
1 8 27 1
1 8 29 1
1 9 11 1
1 9 12 1
1 9 69 1
1 10 11 1
1 10 14 1
1 10 16 1
1 12 13 1
1 12 14 2
1 14 15 1
1 16 17 1
1 16 18 1
1 16 19 1
1 19 20 1
1 19 21 1
1 21 22 1
1 21 23 1
1 23 24 1
1 23 25 1
1 25 26 1
1 25 27 1
1 27 28 1
1 29 30 1
1 29 31 1
1 29 32 1
1 33 34 1
1 34 35 ar
1 34 43 ar
1 35 36 1
1 35 37 ar
1 37 38 1
1 37 39 ar
1 39 40 1
1 39 41 ar
1 41 42 1
1 41 43 ar
1 43 44 1
1 45 46 1
1 46 47 ar
1 46 55 ar
1 47 48 1
1 47 49 ar
1 49 50 1
1 49 51 ar
1 51 52 1
1 51 53 ar
1 53 54 1
1 53 55 ar
1 55 56 1
1 57 58 1
1 58 59 ar
1 58 67 ar
1 59 60 1
1 59 61 ar
1 61 62 1
1 61 63 ar
1 63 64 1
1 63 65 ar
1 65 66 1
1 65 67 ar
1 67 68 1
1 69 70 1
1 69 71 1
1 69 72 1
1 72 73 1
1 72 74 1
1 72 75 1
1 75 76 1
1 75 77 1
1 75 78 1
1 78 79 1
1 78 80 1
1 78 81 1
@<TRIPOS>SUBSTRUCTURE
1 RES1 81

