@<TRIPOS>MOLECULE

77	80	1
SMALL
PartialCharges
****
Generated from molSimplify

@<TRIPOS>ATOM
1 C1	7.7759  5.3761  4.5062 C.3	1 RES1 0.0
2 N1	7.9436  6.1001  5.6289 N.pl3	1 RES1 0.0
3 C2	8.7003  5.6242  6.8102 C.3	1 RES1 0.0
4 H1	9.3195  4.9044  6.5296 H	1 RES1 0.0
5 H2	8.0673  5.239  7.467 H	1 RES1 0.0
6 C3	9.4972  6.7301  7.4803 C.ar	1 RES1 0.0
7 C4	9.1805  7.1314  8.793 C.ar	1 RES1 0.0
8 C5	9.8998  8.1938  9.372 C.ar	1 RES1 0.0
9 C6	10.9108  8.8347  8.6497 C.ar	1 RES1 0.0
10 C7	11.2182  8.4295  7.3413 C.ar	1 RES1 0.0
11 C8	10.5223  7.3574  6.7612 C.ar	1 RES1 0.0
12 C9	8.0709  6.4623  9.569 C.3	1 RES1 0.0
13 H3	7.2137  6.8745  9.3338 H	1 RES1 0.0
14 H4	8.2328  6.5698  10.5293 H	1 RES1 0.0
15 H5	8.0462  5.5075  9.3469 H	1 RES1 0.0
16 C10	9.5683  8.6767  10.7769 C.3	1 RES1 0.0
17 H6	10.226  8.3191  11.4096 H	1 RES1 0.0
18 H7	8.6729  8.365  11.0258 H	1 RES1 0.0
19 H8	9.5911  9.6562  10.8004 H	1 RES1 0.0
20 C11	11.6968  9.9599  9.2933 C.3	1 RES1 0.0
21 H9	11.1926  10.7964  9.2162 H	1 RES1 0.0
22 H10	12.5602  10.056  8.8389 H	1 RES1 0.0
23 H11	11.8473  9.7549  10.2402 H	1 RES1 0.0
24 C12	12.2912  9.1594  6.5596 C.3	1 RES1 0.0
25 H12	12.1812  10.1258  6.6782 H	1 RES1 0.0
26 H13	12.2131  8.9355  5.6084 H	1 RES1 0.0
27 H14	13.1755  8.8897  6.8873 H	1 RES1 0.0
28 C13	10.8774  6.8658  5.371 C.3	1 RES1 0.0
29 H15	10.6917  5.9054  5.3063 H	1 RES1 0.0
30 H16	11.8284  7.0272  5.2001 H	1 RES1 0.0
31 H17	10.3398  7.346  4.7069 H	1 RES1 0.0
32 N2	7.026  6.1019  3.647 N.pl3	1 RES1 0.0
33 C14	6.6069  5.5365  2.3438 C.3	1 RES1 0.0
34 H18	5.9904  4.7789  2.5086 H	1 RES1 0.0
35 H19	7.4048  5.1788  1.8798 H	1 RES1 0.0
36 C15	5.9227  6.5305  1.4371 C.ar	1 RES1 0.0
37 C16	6.6927  7.3628  0.6208 C.ar	1 RES1 0.0
38 C17	6.0536  8.2552  -0.2469 C.ar	1 RES1 0.0
39 C18	4.652  8.323  -0.2734 C.ar	1 RES1 0.0
40 C19	3.8789  7.501  0.5592 C.ar	1 RES1 0.0
41 C20	4.5199  6.6059  1.4348 C.ar	1 RES1 0.0
42 C21	8.2108  7.3462  0.6984 C.3	1 RES1 0.0
43 H20	8.4926  6.7942  1.4568 H	1 RES1 0.0
44 H21	8.5422  8.2607  0.8182 H	1 RES1 0.0
45 H22	8.5757  6.9718  -0.1307 H	1 RES1 0.0
46 C22	6.8882  9.1204  -1.171 C.3	1 RES1 0.0
47 H23	7.0086  10.0063  -0.7676 H	1 RES1 0.0
48 H24	6.4315  9.2132  -2.0333 H	1 RES1 0.0
49 H25	7.7635  8.7019  -1.3082 H	1 RES1 0.0
50 C23	3.9789  9.3072  -1.2169 C.3	1 RES1 0.0
51 H26	4.5028  10.1343  -1.2559 H	1 RES1 0.0
52 H27	3.0763  9.5071  -0.8901 H	1 RES1 0.0
53 H28	3.9222  8.9148  -2.1134 H	1 RES1 0.0
54 C24	2.3707  7.5726  0.4924 C.3	1 RES1 0.0
55 H29	2.0674  8.4275  0.864 H	1 RES1 0.0
56 H30	1.9856  6.8357  1.011 H	1 RES1 0.0
57 H31	2.0811  7.5023  -0.441 H	1 RES1 0.0
58 C25	3.7134  5.7933  2.4149 C.3	1 RES1 0.0
59 H32	2.8944  6.2792  2.6458 H	1 RES1 0.0
60 H33	4.2418  5.6394  3.2256 H	1 RES1 0.0
61 H34	3.4792  4.9316  2.0105 H	1 RES1 0.0
62 C26	7.2664  7.3154  5.5046 C.ar	1 RES1 0.0
63 C27	6.6875  7.3302  4.2398 C.ar	1 RES1 0.0
64 C28	5.9535  8.4399  3.8091 C.ar	1 RES1 0.0
65 H35	5.5771  8.462  2.9365 H	1 RES1 0.0
66 C29	5.7836  9.5105  4.6814 C.ar	1 RES1 0.0
67 C30	6.3328  9.4675  5.9846 C.ar	1 RES1 0.0
68 C31	7.0786  8.3781  6.3993 C.ar	1 RES1 0.0
69 H36	7.4546  8.3511  7.2711 H	1 RES1 0.0
70 C32	5.02  10.7265  4.2155 C.3	1 RES1 0.0
71 H37	4.7159  10.5877  3.2942 H	1 RES1 0.0
72 H38	5.6035  11.5127  4.2529 H	1 RES1 0.0
73 H39	4.2436  10.8682  4.7967 H	1 RES1 0.0
74 C33	6.1251  10.6146  6.9382 C.3	1 RES1 0.0
75 H40	6.5095  10.3879  7.81 H	1 RES1 0.0
76 H41	5.1652  10.7866  7.0391 H	1 RES1 0.0
77 H42	6.565  11.4164  6.5851 H	1 RES1 0.0
@<TRIPOS>BOND
1 1 2 1
1 1 32 1
1 2 3 1
1 2 62 1
1 3 4 1
1 3 5 1
1 3 6 1
1 6 7 ar
1 6 11 ar
1 7 8 ar
1 7 12 1
1 8 9 ar
1 8 16 1
1 9 10 ar
1 9 20 1
1 10 11 ar
1 10 24 1
1 11 28 1
1 12 13 1
1 12 14 1
1 12 15 1
1 16 17 1
1 16 18 1
1 16 19 1
1 20 21 1
1 20 22 1
1 20 23 1
1 24 25 1
1 24 26 1
1 24 27 1
1 28 29 1
1 28 30 1
1 28 31 1
1 32 33 1
1 32 63 1
1 33 34 1
1 33 35 1
1 33 36 1
1 36 37 ar
1 36 41 ar
1 37 38 ar
1 37 42 1
1 38 39 ar
1 38 46 1
1 39 40 ar
1 39 50 1
1 40 41 ar
1 40 54 1
1 41 58 1
1 42 43 1
1 42 44 1
1 42 45 1
1 46 47 1
1 46 48 1
1 46 49 1
1 50 51 1
1 50 52 1
1 50 53 1
1 54 55 1
1 54 56 1
1 54 57 1
1 58 59 1
1 58 60 1
1 58 61 1
1 62 63 ar
1 62 68 ar
1 63 64 ar
1 64 65 1
1 64 66 ar
1 66 67 ar
1 66 70 1
1 67 68 ar
1 67 74 1
1 68 69 1
1 70 71 1
1 70 72 1
1 70 73 1
1 74 75 1
1 74 76 1
1 74 77 1
@<TRIPOS>SUBSTRUCTURE
1 RES1 77

