@<TRIPOS>MOLECULE

42	43	1
SMALL
PartialCharges
****
Generated from molSimplify

@<TRIPOS>ATOM
1 N1	-1.2082  7.7322  4.0491 N.pl3	1 RES1 0.0
2 H1	-1.837  7.1981  4.2916 H	1 RES1 0.0
3 C1	-1.5556  8.7623  3.2858 C.2	1 RES1 0.0
4 N2	-2.8467  8.8569  2.9847 N.pl3	1 RES1 0.0
5 H2	-3.3644  8.3702  3.4692 H	1 RES1 0.0
6 C2	0.4756  8.4563  6.8076 C.ar	1 RES1 0.0
7 H3	0.6961  9.2535  6.3821 H	1 RES1 0.0
8 C3	0.1485  7.4168  4.5202 C.3	1 RES1 0.0
9 H4	0.7309  8.163  4.2664 H	1 RES1 0.0
10 C4	0.1475  7.3311  6.0467 C.ar	1 RES1 0.0
11 C5	0.7085  6.154  3.8696 C.ar	1 RES1 0.0
12 C6	0.4732  8.3919  8.1985 C.ar	1 RES1 0.0
13 H5	0.694  9.1469  8.6954 H	1 RES1 0.0
14 C7	-0.1976  6.1521  6.707 C.ar	1 RES1 0.0
15 H6	-0.4259  5.3983  6.2126 H	1 RES1 0.0
16 C8	-0.1035  5.141  3.3529 C.ar	1 RES1 0.0
17 H7	-1.0278  5.2451  3.3459 H	1 RES1 0.0
18 C9	-0.2059  6.0904  8.1054 C.ar	1 RES1 0.0
19 H8	-0.4467  5.3023  8.5356 H	1 RES1 0.0
20 C10	2.6605  4.8064  3.3519 C.ar	1 RES1 0.0
21 H9	3.5853  4.6996  3.3543 H	1 RES1 0.0
22 C11	2.096  5.9761  3.8563 C.ar	1 RES1 0.0
23 H10	2.6484  6.6462  4.188 H	1 RES1 0.0
24 C12	0.1469  7.2114  8.8491 C.ar	1 RES1 0.0
25 H11	0.1631  7.1703  9.7784 H	1 RES1 0.0
26 C13	1.8532  3.803  2.8469 C.ar	1 RES1 0.0
27 H12	2.229  3.0218  2.5094 H	1 RES1 0.0
28 C14	-3.5476  9.6669  1.9453 C.3	1 RES1 0.0
29 C15	0.4696  3.973  2.8478 C.ar	1 RES1 0.0
30 H13	-0.0769  3.3014  2.508 H	1 RES1 0.0
31 C16	-5.0327  9.6016  2.3151 C.3	1 RES1 0.0
32 H14	-5.3147  8.6842  2.3483 H	1 RES1 0.0
33 H15	-5.5477  10.0708  1.6547 H	1 RES1 0.0
34 H16	-5.1668  10.0078  3.1749 H	1 RES1 0.0
35 C17	-3.3097  9.0184  0.5815 C.3	1 RES1 0.0
36 H17	-2.3738  9.0456  0.3727 H	1 RES1 0.0
37 H18	-3.8018  9.497  -0.0897 H	1 RES1 0.0
38 H19	-3.6063  8.1058  0.6053 H	1 RES1 0.0
39 C18	-3.1123  11.1264  1.9306 C.3	1 RES1 0.0
40 H20	-3.2138  11.4998  2.8093 H	1 RES1 0.0
41 H21	-3.657  11.6162  1.3101 H	1 RES1 0.0
42 H22	-2.1926  11.1835  1.6631 H	1 RES1 0.0
@<TRIPOS>BOND
1 1 2 1
1 1 3 1
1 1 8 1
1 3 4 1
1 4 5 1
1 4 28 1
1 6 7 1
1 6 10 ar
1 6 12 ar
1 8 9 1
1 8 10 1
1 8 11 1
1 10 14 ar
1 11 16 ar
1 11 22 ar
1 12 13 1
1 12 24 ar
1 14 15 1
1 14 18 ar
1 16 17 1
1 16 29 ar
1 18 19 1
1 18 24 ar
1 20 21 1
1 20 22 ar
1 20 26 ar
1 22 23 1
1 24 25 1
1 26 27 1
1 26 29 ar
1 28 31 1
1 28 35 1
1 28 39 1
1 29 30 1
1 31 32 1
1 31 33 1
1 31 34 1
1 35 36 1
1 35 37 1
1 35 38 1
1 39 40 1
1 39 41 1
1 39 42 1
@<TRIPOS>SUBSTRUCTURE
1 RES1 42

