@<TRIPOS>MOLECULE

75	79	1
SMALL
PartialCharges
****
Generated from molSimplify

@<TRIPOS>ATOM
1 O1	-1.5666  13.1203  20.6136 O.3	1 RES1 0.0
2 O2	0.3165  12.6234  19.3251 O.3	1 RES1 0.0
3 O3	0.088  14.8344  18.0765 O.3	1 RES1 0.0
4 O4	-0.6403  16.9578  17.7699 O.2	1 RES1 0.0
5 O5	0.2871  16.7391  20.5399 O.3	1 RES1 0.0
6 O6	2.2855  16.5672  19.4064 O.2	1 RES1 0.0
7 O7	0.2546  15.2125  22.9325 O.3	1 RES1 0.0
8 O8	-0.9043  17.0984  23.382 O.2	1 RES1 0.0
9 N1	-0.5879  9.4047  23.2235 N.pl3	1 RES1 0.0
10 N2	-1.3843  11.3797  22.9532 N.pl3	1 RES1 0.0
11 C1	-0.437  10.6844  23.64 C.3	1 RES1 0.0
12 C2	-1.5813  9.3016  22.301 C.2	1 RES1 0.0
13 H1	-1.8569  8.5047  21.863 H	1 RES1 0.0
14 C3	-2.0979  10.5203  22.1178 C.2	1 RES1 0.0
15 H2	-2.8115  10.7547  21.5365 H	1 RES1 0.0
16 C4	-1.4933  12.8328  22.9317 C.3	1 RES1 0.0
17 H3	-1.1066  13.2047  23.7622 H	1 RES1 0.0
18 H4	-2.4489  13.0906  22.8982 H	1 RES1 0.0
19 C5	-0.7849  13.4125  21.7567 C.3	1 RES1 0.0
20 H5	0.1027  12.9594  21.6639 H	1 RES1 0.0
21 C6	-0.5669  14.9094  21.7862 C.3	1 RES1 0.0
22 H6	-1.4419  15.3906  21.8431 H	1 RES1 0.0
23 C7	0.1844  15.3188  20.5483 C.3	1 RES1 0.0
24 H7	1.1013  14.9219  20.573 H	1 RES1 0.0
25 C8	-0.5439  14.8266  19.306 C.3	1 RES1 0.0
26 H8	-1.401  15.3344  19.2232 H	1 RES1 0.0
27 C9	-0.8708  13.3438  19.398 C.3	1 RES1 0.0
28 H9	-1.4587  13.0875  18.63 H	1 RES1 0.0
29 C10	0.1142  11.2016  19.3506 C.3	1 RES1 0.0
30 H10	0.9536  10.7469  19.1316 H	1 RES1 0.0
31 H11	-0.5711  10.9563  18.6937 H	1 RES1 0.0
32 H12	-0.1802  10.9297  20.2465 H	1 RES1 0.0
33 C11	-0.0105  16.0453  17.4235 C.2	1 RES1 0.0
34 C12	0.8436  15.9609  16.1693 C.ar	1 RES1 0.0
35 C13	1.0992  14.7875  15.5522 C.ar	1 RES1 0.0
36 H13	0.701  13.9813  15.8588 H	1 RES1 0.0
37 C14	1.9585  14.7844  14.4572 C.ar	1 RES1 0.0
38 H14	2.0937  13.9828  13.9635 H	1 RES1 0.0
39 C15	2.6334  15.9719  14.071 C.ar	1 RES1 0.0
40 H15	3.2925  15.9641  13.3862 H	1 RES1 0.0
41 C16	2.2834  17.1672  14.7439 C.ar	1 RES1 0.0
42 H16	2.6439  17.9953  14.4493 H	1 RES1 0.0
43 C17	1.4482  17.1453  15.795 C.ar	1 RES1 0.0
44 H17	1.2732  17.9422  16.2808 H	1 RES1 0.0
45 C18	1.3403  18.7656  20.0275 C.ar	1 RES1 0.0
46 C19	1.2428  21.5203  19.7488 C.ar	1 RES1 0.0
47 H18	1.1925  22.4766  19.6692 H	1 RES1 0.0
48 C20	1.3801  17.2  19.8802 C.2	1 RES1 0.0
49 C21	0.5638  19.3578  20.8756 C.ar	1 RES1 0.0
50 H19	0.0671  18.8672  21.5206 H	1 RES1 0.0
51 C22	0.4883  20.7703  20.8039 C.ar	1 RES1 0.0
52 H20	-0.0451  21.2469  21.429 H	1 RES1 0.0
53 C23	2.0057  20.7734  18.9246 C.ar	1 RES1 0.0
54 H21	2.5349  21.2172  18.2716 H	1 RES1 0.0
55 C24	2.057  19.3719  18.9803 C.ar	1 RES1 0.0
56 H22	2.5485  18.8609  18.3473 H	1 RES1 0.0
57 C25	0.0178  16.3578  23.6074 C.2	1 RES1 0.0
58 C26	1.0385  16.5531  24.6577 C.ar	1 RES1 0.0
59 C27	2.2205  15.8297  24.6832 C.ar	1 RES1 0.0
60 H23	2.3892  15.1688  24.0211 H	1 RES1 0.0
61 C28	3.1416  16.0719  25.6615 C.ar	1 RES1 0.0
62 H24	3.9621  15.5938  25.6615 H	1 RES1 0.0
63 C29	2.8933  17.0109  26.6648 C.ar	1 RES1 0.0
64 H25	3.5335  17.1641  27.3457 H	1 RES1 0.0
65 C30	1.7248  17.7047  26.6489 C.ar	1 RES1 0.0
66 H26	1.5457  18.3375  27.3338 H	1 RES1 0.0
67 C31	0.7901  17.5016  25.6448 C.ar	1 RES1 0.0
68 H27	-0.0147  18.0063  25.6296 H	1 RES1 0.0
69 C32	0.24  8.3094  23.6508 C.3	1 RES1 0.0
70 H28	-0.2609  7.4625  23.5472 H	1 RES1 0.0
71 H29	0.46  8.4203  24.6103 H	1 RES1 0.0
72 C33	1.51  8.2344  22.8584 C.3	1 RES1 0.0
73 H30	2.0392  7.4672  23.161 H	1 RES1 0.0
74 H31	2.0245  9.0578  22.9858 H	1 RES1 0.0
75 H32	1.2952  8.1297  21.9068 H	1 RES1 0.0
@<TRIPOS>BOND
1 1 19 1
1 1 27 1
1 2 27 1
1 2 29 1
1 3 25 1
1 3 33 1
1 4 33 2
1 5 23 1
1 5 48 1
1 6 48 2
1 7 21 1
1 7 57 1
1 8 57 2
1 9 11 1
1 9 12 1
1 9 69 1
1 10 11 1
1 10 14 1
1 10 16 1
1 12 13 1
1 12 14 2
1 14 15 1
1 16 17 1
1 16 18 1
1 16 19 1
1 19 20 1
1 19 21 1
1 21 22 1
1 21 23 1
1 23 24 1
1 23 25 1
1 25 26 1
1 25 27 1
1 27 28 1
1 29 30 1
1 29 31 1
1 29 32 1
1 33 34 1
1 34 35 ar
1 34 43 ar
1 35 36 1
1 35 37 ar
1 37 38 1
1 37 39 ar
1 39 40 1
1 39 41 ar
1 41 42 1
1 41 43 ar
1 43 44 1
1 45 48 1
1 45 49 ar
1 45 55 ar
1 46 47 1
1 46 51 ar
1 46 53 ar
1 49 50 1
1 49 51 ar
1 51 52 1
1 53 54 1
1 53 55 ar
1 55 56 1
1 57 58 1
1 58 59 ar
1 58 67 ar
1 59 60 1
1 59 61 ar
1 61 62 1
1 61 63 ar
1 63 64 1
1 63 65 ar
1 65 66 1
1 65 67 ar
1 67 68 1
1 69 70 1
1 69 71 1
1 69 72 1
1 72 73 1
1 72 74 1
1 72 75 1
@<TRIPOS>SUBSTRUCTURE
1 RES1 75

