@<TRIPOS>MOLECULE

27	27	1
SMALL
PartialCharges
****
Generated from molSimplify

@<TRIPOS>ATOM
1 C1	14.6964  -0.9877  2.3111 C.3	1 RES1 0.0
2 N1	13.9379  -2.0081  2.7632 N.pl3	1 RES1 0.0
3 N2	15.8969  -1.167  2.926 N.pl3	1 RES1 0.0
4 C2	14.6441  -2.8193  3.6395 C.2	1 RES1 0.0
5 H1	14.3216  -3.5961  4.0821 H	1 RES1 0.0
6 C3	15.8744  -2.2869  3.7374 C.2	1 RES1 0.0
7 H2	16.5931  -2.6174  4.265 H	1 RES1 0.0
8 C4	12.5403  -2.2634  2.3517 C.3	1 RES1 0.0
9 H3	12.2525  -1.5128  1.758 H	1 RES1 0.0
10 C5	12.4646  -3.5526  1.5487 C.3	1 RES1 0.0
11 H4	13.0577  -3.4874  0.771 H	1 RES1 0.0
12 H5	11.5437  -3.6956  1.2469 H	1 RES1 0.0
13 H6	12.7435  -4.3049  2.1105 H	1 RES1 0.0
14 C6	11.6264  -2.2806  3.5587 C.3	1 RES1 0.0
15 H7	11.7466  -1.454  4.0711 H	1 RES1 0.0
16 H8	11.8461  -3.0501  4.124 H	1 RES1 0.0
17 H9	10.6955  -2.3485  3.2626 H	1 RES1 0.0
18 C7	17.0782  -0.3286  2.6733 C.3	1 RES1 0.0
19 H10	16.7678  0.5025  2.2118 H	1 RES1 0.0
20 C8	17.7292  0.0878  3.9874 C.3	1 RES1 0.0
21 H11	17.0685  0.5441  4.5492 H	1 RES1 0.0
22 H12	18.4774  0.6944  3.8023 H	1 RES1 0.0
23 H13	18.061  -0.708  4.4544 H	1 RES1 0.0
24 C9	18.0378  -1.0421  1.736 C.3	1 RES1 0.0
25 H14	17.5607  -1.3091  0.923 H	1 RES1 0.0
26 H15	18.396  -1.8388  2.181 H	1 RES1 0.0
27 H16	18.7732  -0.4391  1.5024 H	1 RES1 0.0
@<TRIPOS>BOND
1 1 2 1
1 1 3 1
1 2 4 1
1 2 8 1
1 3 6 1
1 3 18 1
1 4 5 1
1 4 6 2
1 6 7 1
1 8 9 1
1 8 10 1
1 8 14 1
1 10 11 1
1 10 12 1
1 10 13 1
1 14 15 1
1 14 16 1
1 14 17 1
1 18 19 1
1 18 20 1
1 18 24 1
1 20 21 1
1 20 22 1
1 20 23 1
1 24 25 1
1 24 26 1
1 24 27 1
@<TRIPOS>SUBSTRUCTURE
1 RES1 27

