@<TRIPOS>MOLECULE

127	136	1
SMALL
PartialCharges
****
Generated from molSimplify

@<TRIPOS>ATOM
1 N1	0.706  2.1013  1.8395 N.pl3	1 RES1 0.0
2 N2	2.1622  2.6824  3.2885 N.pl3	1 RES1 0.0
3 O1	6.9304  4.5118  5.4717 O.3	1 RES1 0.0
4 O2	7.0249  6.9527  7.3782 O.3	1 RES1 0.0
5 O3	9.0666  4.0692  8.1072 O.3	1 RES1 0.0
6 O4	9.353  2.0078  5.896 O.3	1 RES1 0.0
7 C1	1.9875  2.4909  1.9522 C.3	1 RES1 0.0
8 C2	0.0943  2.0453  3.0794 C.2	1 RES1 0.0
9 H1	-0.8069  1.797  3.2495 H	1 RES1 0.0
10 C3	1.0025  2.4055  3.9926 C.2	1 RES1 0.0
11 H2	0.8767  2.4591  4.9325 H	1 RES1 0.0
12 C4	0.0089  1.934  0.56 C.3	1 RES1 0.0
13 H3	-0.752  1.3112  0.679 H	1 RES1 0.0
14 H4	0.6285  1.54  -0.1031 H	1 RES1 0.0
15 C5	-0.51  3.2738  0.0376 C.3	1 RES1 0.0
16 H5	0.2764  3.8466  -0.1457 H	1 RES1 0.0
17 H6	-0.9521  3.1017  -0.8314 H	1 RES1 0.0
18 C6	-1.3882  4.0122  0.809 C.3	1 RES1 0.0
19 H7	-0.9407  4.2191  1.6673 H	1 RES1 0.0
20 H8	-2.1681  3.4393  1.0152 H	1 RES1 0.0
21 C7	-1.9039  5.3153  0.2223 C.3	1 RES1 0.0
22 H9	-2.5432  5.7242  0.8426 H	1 RES1 0.0
23 H10	-2.3481  5.1361  -0.632 H	1 RES1 0.0
24 H11	-1.1521  5.9267  0.0762 H	1 RES1 0.0
25 C8	3.3926  3.1335  3.8949 C.ar	1 RES1 0.0
26 C9	3.4085  4.3232  4.5912 C.ar	1 RES1 0.0
27 H12	2.6082  4.8246  4.6905 H	1 RES1 0.0
28 C10	4.5875  4.7895  5.1468 C.ar	1 RES1 0.0
29 C11	5.7278  4.0287  4.9736 C.ar	1 RES1 0.0
30 C12	5.7001  2.7567  4.3833 C.ar	1 RES1 0.0
31 C13	4.4998  2.3326  3.8167 C.ar	1 RES1 0.0
32 H13	4.4505  1.492  3.3773 H	1 RES1 0.0
33 C14	4.6509  6.0583  5.9843 C.3	1 RES1 0.0
34 H14	5.3465  6.663  5.6228 H	1 RES1 0.0
35 H15	3.7809  6.5301  5.9433 H	1 RES1 0.0
36 C15	4.399  4.4741  9.3981 C.ar	1 RES1 0.0
37 H16	3.7724  3.949  9.8808 H	1 RES1 0.0
38 C16	5.6117  4.812  9.9818 C.ar	1 RES1 0.0
39 H17	5.8229  4.4913  10.8511 H	1 RES1 0.0
40 C17	6.5147  5.6114  9.3109 C.ar	1 RES1 0.0
41 C18	6.159  6.094  8.0545 C.ar	1 RES1 0.0
42 C19	4.9744  5.7087  7.4223 C.ar	1 RES1 0.0
43 C20	4.0992  4.895  8.1276 C.ar	1 RES1 0.0
44 H18	3.2821  4.6264  7.7249 H	1 RES1 0.0
45 C21	7.8811  5.8634  9.9384 C.3	1 RES1 0.0
46 H19	8.468  6.3145  9.2824 H	1 RES1 0.0
47 H20	7.7801  6.4604  10.7212 H	1 RES1 0.0
48 C22	9.0274  2.9385  12.0801 C.ar	1 RES1 0.0
49 H21	9.0812  2.7009  12.9981 H	1 RES1 0.0
50 C23	9.443  2.042  11.1129 C.ar	1 RES1 0.0
51 H22	9.7369  1.1762  11.3711 H	1 RES1 0.0
52 C24	9.4333  2.3929  9.7694 C.ar	1 RES1 0.0
53 C25	9.0351  3.6815  9.4317 C.ar	1 RES1 0.0
54 C26	8.5182  4.5613  10.3738 C.ar	1 RES1 0.0
55 C27	8.5396  4.1675  11.7193 C.ar	1 RES1 0.0
56 H23	8.2124  4.7593  12.3885 H	1 RES1 0.0
57 C28	9.7243  1.3611  8.6962 C.3	1 RES1 0.0
58 H24	10.061  0.5293  9.1143 H	1 RES1 0.0
59 H25	10.421  1.7033  8.0812 H	1 RES1 0.0
60 C29	6.1433  0.3422  7.9297 C.ar	1 RES1 0.0
61 H26	5.4148  -0.0653  8.3815 H	1 RES1 0.0
62 C30	7.3649  0.4962  8.5702 C.ar	1 RES1 0.0
63 H27	7.462  0.2069  9.4684 H	1 RES1 0.0
64 C31	8.4461  1.0673  7.916 C.ar	1 RES1 0.0
65 C32	8.2834  1.4367  6.5849 C.ar	1 RES1 0.0
66 C33	7.0588  1.33  5.9291 C.ar	1 RES1 0.0
67 C34	5.9954  0.7876  6.6306 C.ar	1 RES1 0.0
68 H28	5.146  0.721  6.2099 H	1 RES1 0.0
69 C35	6.8829  1.8251  4.494 C.3	1 RES1 0.0
70 H29	7.7023  2.2979  4.2064 H	1 RES1 0.0
71 H30	6.7499  1.0499  3.8927 H	1 RES1 0.0
72 C36	7.8057  5.0566  4.453 C.3	1 RES1 0.0
73 H31	7.9582  4.3628  3.765 H	1 RES1 0.0
74 H32	8.6799  5.2646  4.8676 H	1 RES1 0.0
75 C37	7.2893  6.2953  3.7782 C.ar	1 RES1 0.0
76 C38	6.3677  6.2339  2.7495 C.ar	1 RES1 0.0
77 H33	6.0534  5.3866  2.4562 H	1 RES1 0.0
78 C39	5.8936  7.3839  2.1386 C.ar	1 RES1 0.0
79 H34	5.2346  7.3229  1.4567 H	1 RES1 0.0
80 C40	6.3771  8.6124  2.5203 C.ar	1 RES1 0.0
81 H35	6.0688  9.4009  2.0887 H	1 RES1 0.0
82 C41	7.3052  8.6987  3.5256 C.ar	1 RES1 0.0
83 H36	7.6428  9.549  3.7829 H	1 RES1 0.0
84 C42	7.7552  7.5519  4.1744 C.ar	1 RES1 0.0
85 H37	8.379  7.6235  4.8877 H	1 RES1 0.0
86 C43	6.9396  8.3181  7.8351 C.3	1 RES1 0.0
87 H38	7.727  8.8041  7.4829 H	1 RES1 0.0
88 H39	7.0178  8.3118  8.823 H	1 RES1 0.0
89 C44	5.7396  9.0938  7.4851 C.ar	1 RES1 0.0
90 C45	5.7043  9.7167  6.2817 C.ar	1 RES1 0.0
91 H40	6.4748  9.6906  5.7259 H	1 RES1 0.0
92 C46	4.5829  10.3898  5.8402 C.ar	1 RES1 0.0
93 H41	4.5659  10.8189  4.9931 H	1 RES1 0.0
94 C47	3.5321  10.4116  6.6447 C.ar	1 RES1 0.0
95 H42	2.7592  10.8799  6.3556 H	1 RES1 0.0
96 C48	3.488  9.8082  7.8526 C.ar	1 RES1 0.0
97 H43	2.7115  9.8561  8.3994 H	1 RES1 0.0
98 C49	4.6049  9.1243  8.265 C.ar	1 RES1 0.0
99 H44	4.5939  8.669  9.0964 H	1 RES1 0.0
100 C50	10.401  4.397  7.6397 C.3	1 RES1 0.0
101 H45	10.3977  4.4216  6.6492 H	1 RES1 0.0
102 H46	11.0267  3.6833  7.9221 H	1 RES1 0.0
103 C51	10.893  5.7057  8.1576 C.ar	1 RES1 0.0
104 C52	10.771  6.8459  7.3899 C.ar	1 RES1 0.0
105 H47	10.3964  6.7893  6.5192 H	1 RES1 0.0
106 C53	11.1859  8.055  7.8719 C.ar	1 RES1 0.0
107 H48	11.1198  8.828  7.3237 H	1 RES1 0.0
108 C54	11.7047  8.1615  9.1538 C.ar	1 RES1 0.0
109 H49	11.9756  9.0067  9.4908 H	1 RES1 0.0
110 C55	11.8253  7.0376  9.9325 C.ar	1 RES1 0.0
111 H50	12.1738  7.0986  10.8131 H	1 RES1 0.0
112 C56	11.4345  5.8196  9.4216 C.ar	1 RES1 0.0
113 H51	11.5403  5.0381  9.9525 H	1 RES1 0.0
114 C57	10.1085  1.0547  5.1298 C.3	1 RES1 0.0
115 H52	10.7502  0.5816  5.7169 H	1 RES1 0.0
116 H53	9.5009  0.3834  4.7286 H	1 RES1 0.0
117 C58	10.8561  1.7992  4.0339 C.ar	1 RES1 0.0
118 C59	10.3301  1.773  2.7722 C.ar	1 RES1 0.0
119 H54	9.5626  1.2459  2.5839 H	1 RES1 0.0
120 C60	10.9168  2.5136  1.7727 C.ar	1 RES1 0.0
121 H55	10.5382  2.5136  0.9009 H	1 RES1 0.0
122 C61	12.0297  3.2367  2.0192 C.ar	1 RES1 0.0
123 H56	12.4157  3.7726  1.3379 H	1 RES1 0.0
124 C62	12.6029  3.191  3.2899 C.ar	1 RES1 0.0
125 H57	13.4294  3.631  3.4467 H	1 RES1 0.0
126 C63	11.9978  2.5288  4.3006 C.ar	1 RES1 0.0
127 H58	12.3521  2.5659  5.1813 H	1 RES1 0.0
@<TRIPOS>BOND
1 1 7 1
1 1 8 1
1 1 12 1
1 2 7 1
1 2 10 1
1 2 25 1
1 3 29 1
1 3 72 1
1 4 41 1
1 4 86 1
1 5 53 1
1 5 100 1
1 6 65 1
1 6 114 1
1 8 9 1
1 8 10 2
1 10 11 1
1 12 13 1
1 12 14 1
1 12 15 1
1 15 16 1
1 15 17 1
1 15 18 1
1 18 19 1
1 18 20 1
1 18 21 1
1 21 22 1
1 21 23 1
1 21 24 1
1 25 26 ar
1 25 31 ar
1 26 27 1
1 26 28 ar
1 28 29 ar
1 28 33 1
1 29 30 ar
1 30 31 ar
1 30 69 1
1 31 32 1
1 33 34 1
1 33 35 1
1 33 42 1
1 36 37 1
1 36 38 ar
1 36 43 ar
1 38 39 1
1 38 40 ar
1 40 41 ar
1 40 45 1
1 41 42 ar
1 42 43 ar
1 43 44 1
1 45 46 1
1 45 47 1
1 45 54 1
1 48 49 1
1 48 50 ar
1 48 55 ar
1 50 51 1
1 50 52 ar
1 52 53 ar
1 52 57 1
1 53 54 ar
1 54 55 ar
1 55 56 1
1 57 58 1
1 57 59 1
1 57 64 1
1 60 61 1
1 60 62 ar
1 60 67 ar
1 62 63 1
1 62 64 ar
1 64 65 ar
1 65 66 ar
1 66 67 ar
1 66 69 1
1 67 68 1
1 69 70 1
1 69 71 1
1 72 73 1
1 72 74 1
1 72 75 1
1 75 76 ar
1 75 84 ar
1 76 77 1
1 76 78 ar
1 78 79 1
1 78 80 ar
1 80 81 1
1 80 82 ar
1 82 83 1
1 82 84 ar
1 84 85 1
1 86 87 1
1 86 88 1
1 86 89 1
1 89 90 ar
1 89 98 ar
1 90 91 1
1 90 92 ar
1 92 93 1
1 92 94 ar
1 94 95 1
1 94 96 ar
1 96 97 1
1 96 98 ar
1 98 99 1
1 100 101 1
1 100 102 1
1 100 103 1
1 103 104 ar
1 103 112 ar
1 104 105 1
1 104 106 ar
1 106 107 1
1 106 108 ar
1 108 109 1
1 108 110 ar
1 110 111 1
1 110 112 ar
1 112 113 1
1 114 115 1
1 114 116 1
1 114 117 1
1 117 118 ar
1 117 126 ar
1 118 119 1
1 118 120 ar
1 120 121 1
1 120 122 ar
1 122 123 1
1 122 124 ar
1 124 125 1
1 124 126 ar
1 126 127 1
@<TRIPOS>SUBSTRUCTURE
1 RES1 127

