@<TRIPOS>MOLECULE

31	32	1
SMALL
PartialCharges
****
Generated from molSimplify

@<TRIPOS>ATOM
1 C1	4.1247  12.7212  4.36 C.3	1 RES1 0.0
2 C2	2.0568  12.0616  4.997 C.2	1 RES1 0.0
3 H1	1.2817  11.5543  5.0778 H	1 RES1 0.0
4 C3	2.2957  13.2494  5.5796 C.2	1 RES1 0.0
5 H2	1.7239  13.7208  6.1399 H	1 RES1 0.0
6 C4	4.1739  14.9123  5.5434 C.3	1 RES1 0.0
7 H3	5.0866  14.9421  5.2172 H	1 RES1 0.0
8 H4	4.1986  14.9885  6.5093 H	1 RES1 0.0
9 C5	3.3924  16.0882  4.9635 C.3	1 RES1 0.0
10 H5	3.2962  15.968  4.0059 H	1 RES1 0.0
11 H6	2.5039  16.1059  5.3524 H	1 RES1 0.0
12 C6	4.0848  17.4164  5.2353 C.3	1 RES1 0.0
13 H7	4.9763  17.3977  4.8548 H	1 RES1 0.0
14 H8	4.1706  17.5427  6.1929 H	1 RES1 0.0
15 C7	3.3042  18.5811  4.6402 C.3	1 RES1 0.0
16 H9	3.7671  19.402  4.8214 H	1 RES1 0.0
17 H10	2.429  18.6142  5.0332 H	1 RES1 0.0
18 H11	3.2244  18.4611  3.6909 H	1 RES1 0.0
19 C8	3.303  10.5518  3.4665 C.ar	1 RES1 0.0
20 C9	2.9329  9.3348  4.0143 C.ar	1 RES1 0.0
21 H12	2.6632  9.2848  4.9022 H	1 RES1 0.0
22 C10	2.9646  8.1945  3.2365 C.ar	1 RES1 0.0
23 H13	2.7155  7.3727  3.5934 H	1 RES1 0.0
24 C11	3.3748  8.293  1.9096 C.ar	1 RES1 0.0
25 C12	3.7874  9.4918  1.3702 C.ar	1 RES1 0.0
26 H14	4.091  9.5324  0.492 H	1 RES1 0.0
27 C13	3.7426  10.6311  2.1493 C.ar	1 RES1 0.0
28 H15	4.0075  11.4497  1.7953 H	1 RES1 0.0
29 N1	3.5697  13.6312  5.1746 N.pl3	1 RES1 0.0
30 N2	3.1888  11.7314  4.252 N.pl3	1 RES1 0.0
31 Br1	3.3546  6.7461  0.8178 Br	1 RES1 0.0
@<TRIPOS>BOND
1 1 29 1
1 1 30 1
1 2 3 1
1 2 4 2
1 2 30 1
1 4 5 1
1 4 29 1
1 6 7 1
1 6 8 1
1 6 9 1
1 6 29 1
1 9 10 1
1 9 11 1
1 9 12 1
1 12 13 1
1 12 14 1
1 12 15 1
1 15 16 1
1 15 17 1
1 15 18 1
1 19 20 ar
1 19 27 ar
1 19 30 1
1 20 21 1
1 20 22 ar
1 22 23 1
1 22 24 ar
1 24 25 ar
1 24 31 1
1 25 26 1
1 25 27 ar
1 27 28 1
@<TRIPOS>SUBSTRUCTURE
1 RES1 31

