@<TRIPOS>MOLECULE

18	18	1
SMALL
PartialCharges
****
Generated from molSimplify

@<TRIPOS>ATOM
1 N1	0.9405  5.2139  4.343 N.pl3	1 RES1 0.0
2 N2	1.1932  3.1097  4.1618 N.pl3	1 RES1 0.0
3 C1	1.81  4.2391  4.5916 C.3	1 RES1 0.0
4 C2	-0.2193  4.7124  3.7667 C.2	1 RES1 0.0
5 H1	-0.9851  5.2121  3.5105 H	1 RES1 0.0
6 C3	-0.0531  3.3881  3.6429 C.2	1 RES1 0.0
7 H2	-0.6691  2.7672  3.2717 H	1 RES1 0.0
8 C4	1.8063  1.7555  4.253 C.3	1 RES1 0.0
9 H3	2.7705  1.8179  4.0391 H	1 RES1 0.0
10 H4	1.3837  1.1592  3.5854 H	1 RES1 0.0
11 C5	1.6364  1.1636  5.6294 C.3	1 RES1 0.0
12 H5	2.0657  1.7459  6.2904 H	1 RES1 0.0
13 H6	2.0512  0.2766  5.6576 H	1 RES1 0.0
14 H7	0.6816  1.0846  5.8356 H	1 RES1 0.0
15 C6	1.1703  6.6014  4.6839 C.3	1 RES1 0.0
16 H8	2.0215  6.8965  4.2953 H	1 RES1 0.0
17 H9	1.2055  6.6972  5.6576 H	1 RES1 0.0
18 H10	0.442  7.1512  4.3279 H	1 RES1 0.0
@<TRIPOS>BOND
1 1 3 1
1 1 4 1
1 1 15 1
1 2 3 1
1 2 6 1
1 2 8 1
1 4 5 1
1 4 6 2
1 6 7 1
1 8 9 1
1 8 10 1
1 8 11 1
1 11 12 1
1 11 13 1
1 11 14 1
1 15 16 1
1 15 17 1
1 15 18 1
@<TRIPOS>SUBSTRUCTURE
1 RES1 18

