@<TRIPOS>MOLECULE

53	55	1
SMALL
PartialCharges
****
Generated from molSimplify

@<TRIPOS>ATOM
1 N1	10.0117  4.9223  7.428 N.pl3	1 RES1 0.0
2 N2	9.748  4.2831  9.4676 N.pl3	1 RES1 0.0
3 C1	10.5742  4.1837  8.4042 C.3	1 RES1 0.0
4 C2	8.7934  5.461  7.8785 C.2	1 RES1 0.0
5 H1	8.1868  5.9949  7.3783 H	1 RES1 0.0
6 C3	8.6532  5.072  9.1586 C.2	1 RES1 0.0
7 H2	7.9384  5.2973  9.7419 H	1 RES1 0.0
8 C4	10.5024  5.1452  6.0847 C.ar	1 RES1 0.0
9 C5	11.1616  6.3537  5.815 C.ar	1 RES1 0.0
10 C6	11.5037  6.5995  4.4854 C.ar	1 RES1 0.0
11 H3	11.962  7.4017  4.2642 H	1 RES1 0.0
12 C7	11.1933  5.7167  3.4989 C.ar	1 RES1 0.0
13 H4	11.4117  5.9184  2.5968 H	1 RES1 0.0
14 C8	10.5658  4.5334  3.8044 C.ar	1 RES1 0.0
15 H5	10.387  3.9165  3.105 H	1 RES1 0.0
16 C9	10.187  4.2088  5.0896 C.ar	1 RES1 0.0
17 C10	11.4787  7.3753  6.8784 C.3	1 RES1 0.0
18 H6	11.3813  6.9391  7.7721 H	1 RES1 0.0
19 C11	10.5157  8.5499  6.8101 C.3	1 RES1 0.0
20 H7	10.6381  9.0253  5.9624 H	1 RES1 0.0
21 H8	10.6915  9.1604  7.5561 H	1 RES1 0.0
22 H9	9.594  8.2198  6.8692 H	1 RES1 0.0
23 C12	12.9139  7.8998  6.7521 C.3	1 RES1 0.0
24 H10	13.1223  8.4688  7.5226 H	1 RES1 0.0
25 H11	13.0004  8.4217  5.9276 H	1 RES1 0.0
26 H12	13.5372  7.1436  6.7272 H	1 RES1 0.0
27 C13	9.4476  2.9381  5.3542 C.3	1 RES1 0.0
28 H13	9.3435  2.8418  6.3435 H	1 RES1 0.0
29 C14	10.2554  1.7089  4.8353 C.3	1 RES1 0.0
30 H14	11.1324  1.687  5.271 H	1 RES1 0.0
31 H15	10.3731  1.7809  3.8653 H	1 RES1 0.0
32 H16	9.7661  0.8851  5.0444 H	1 RES1 0.0
33 C15	8.0625  2.9851  4.7432 C.3	1 RES1 0.0
34 H17	8.1234  3.3139  3.8219 H	1 RES1 0.0
35 H18	7.4948  3.5861  5.2682 H	1 RES1 0.0
36 H19	7.675  2.085  4.7437 H	1 RES1 0.0
37 C16	9.985  3.6745  10.7835 C.3	1 RES1 0.0
38 H20	10.7837  3.0773  10.71 H	1 RES1 0.0
39 C17	8.7868  2.8168  11.1914 C.3	1 RES1 0.0
40 H21	8.6593  2.0863  10.5363 H	1 RES1 0.0
41 H22	7.9664  3.3713  11.2013 H	1 RES1 0.0
42 C18	9.0338  2.2181  12.6064 C.3	1 RES1 0.0
43 H23	8.2343  1.7098  12.8909 H	1 RES1 0.0
44 H24	9.7977  1.5894  12.5663 H	1 RES1 0.0
45 C19	9.3292  3.2943  13.6219 C.3	1 RES1 0.0
46 H25	9.5167  2.8779  14.5007 H	1 RES1 0.0
47 H26	8.536  3.8795  13.7236 H	1 RES1 0.0
48 C20	10.5441  4.1433  13.1815 C.3	1 RES1 0.0
49 H27	10.7038  4.864  13.8409 H	1 RES1 0.0
50 H28	11.3532  3.5725  13.1478 H	1 RES1 0.0
51 C21	10.2938  4.7519  11.811 C.3	1 RES1 0.0
52 H29	11.0944  5.2603  11.5258 H	1 RES1 0.0
53 H30	9.5336  5.3834  11.8661 H	1 RES1 0.0
@<TRIPOS>BOND
1 1 3 1
1 1 4 1
1 1 8 1
1 2 3 1
1 2 6 1
1 2 37 1
1 4 5 1
1 4 6 2
1 6 7 1
1 8 9 ar
1 8 16 ar
1 9 10 ar
1 9 17 1
1 10 11 1
1 10 12 ar
1 12 13 1
1 12 14 ar
1 14 15 1
1 14 16 ar
1 16 27 1
1 17 18 1
1 17 19 1
1 17 23 1
1 19 20 1
1 19 21 1
1 19 22 1
1 23 24 1
1 23 25 1
1 23 26 1
1 27 28 1
1 27 29 1
1 27 33 1
1 29 30 1
1 29 31 1
1 29 32 1
1 33 34 1
1 33 35 1
1 33 36 1
1 37 38 1
1 37 39 1
1 37 51 1
1 39 40 1
1 39 41 1
1 39 42 1
1 42 43 1
1 42 44 1
1 42 45 1
1 45 46 1
1 45 47 1
1 45 48 1
1 48 49 1
1 48 50 1
1 48 51 1
1 51 52 1
1 51 53 1
@<TRIPOS>SUBSTRUCTURE
1 RES1 53

