@<TRIPOS>MOLECULE

131	139	1
SMALL
PartialCharges
****
Generated from molSimplify

@<TRIPOS>ATOM
1 N1	2.0823  3.8427  5.5788 N.pl3	1 RES1 0.0
2 N2	2.4847  2.778  7.4108 N.pl3	1 RES1 0.0
3 C1	2.3524  3.9976  6.8879 C.3	1 RES1 0.0
4 C2	2.4372  1.6907  6.3976 C.3	1 RES1 0.0
5 H1	1.8527  0.947  6.6888 H	1 RES1 0.0
6 H2	3.3419  1.339  6.1991 H	1 RES1 0.0
7 C3	1.8489  2.4344  5.2043 C.3	1 RES1 0.0
8 H3	2.32  2.2005  4.3646 H	1 RES1 0.0
9 H4	0.883  2.2424  5.1002 H	1 RES1 0.0
10 C4	1.8323  4.8865  4.6312 C.ar	1 RES1 0.0
11 C5	2.8025  5.0527  3.5952 C.ar	1 RES1 0.0
12 C6	4.0065  4.3074  3.5338 C.ar	1 RES1 0.0
13 H5	4.2092  3.6992  4.2339 H	1 RES1 0.0
14 C7	4.8914  4.4348  2.4903 C.ar	1 RES1 0.0
15 C8	4.5919  5.3285  1.4512 C.ar	1 RES1 0.0
16 H6	5.1752  5.3963  0.7045 H	1 RES1 0.0
17 C9	3.4698  6.1013  1.5044 C.ar	1 RES1 0.0
18 H7	3.3012  6.7224  0.8065 H	1 RES1 0.0
19 C10	2.557  5.9996  2.5681 C.ar	1 RES1 0.0
20 C11	1.382  6.7885  2.6507 C.ar	1 RES1 0.0
21 H8	1.2162  7.4483  1.9874 H	1 RES1 0.0
22 C12	0.489  6.6175  3.6625 C.ar	1 RES1 0.0
23 H9	-0.2806  7.1741  3.6978 H	1 RES1 0.0
24 C13	0.6718  5.6205  4.6764 C.ar	1 RES1 0.0
25 C14	2.7779  2.4441  8.7745 C.ar	1 RES1 0.0
26 C15	1.6892  1.9456  9.5535 C.ar	1 RES1 0.0
27 C16	0.3649  1.8552  9.0638 C.ar	1 RES1 0.0
28 H10	0.1871  2.1343  8.1732 H	1 RES1 0.0
29 C17	-0.6661  1.3842  9.8238 C.ar	1 RES1 0.0
30 C18	-0.4033  1.0034  11.1376 C.ar	1 RES1 0.0
31 H11	-1.1127  0.6776  11.6782 H	1 RES1 0.0
32 C19	0.8405  1.0857  11.6583 C.ar	1 RES1 0.0
33 H12	0.9832  0.8308  12.5622 H	1 RES1 0.0
34 C20	1.9413  1.5439  10.8848 C.ar	1 RES1 0.0
35 C21	3.2553  1.6213  11.3851 C.ar	1 RES1 0.0
36 H13	3.435  1.339  12.2742 H	1 RES1 0.0
37 C22	4.2623  2.0908  10.6192 C.ar	1 RES1 0.0
38 H14	5.141  2.1166  10.9781 H	1 RES1 0.0
39 C23	4.0455  2.5505  9.2852 C.ar	1 RES1 0.0
40 C24	6.17  3.5862  2.477 C.3	1 RES1 0.0
41 H15	6.2602  3.4572  3.4651 H	1 RES1 0.0
42 C25	7.4168  4.4009  2.2599 C.3	1 RES1 0.0
43 H16	7.4517  5.1091  2.9511 H	1 RES1 0.0
44 H17	7.3489  4.8462  1.3803 H	1 RES1 0.0
45 C26	8.7261  3.6233  2.3064 C.3	1 RES1 0.0
46 H18	9.4363  4.2122  2.6653 H	1 RES1 0.0
47 H19	8.6243  2.8603  2.929 H	1 RES1 0.0
48 C27	9.167  3.0926  0.9505 C.3	1 RES1 0.0
49 H20	9.2581  3.8718  0.3456 H	1 RES1 0.0
50 H21	10.0733  2.7119  1.0635 H	1 RES1 0.0
51 C28	8.3294  2.0553  0.226 C.3	1 RES1 0.0
52 H22	8.1435  1.3051  0.8419 H	1 RES1 0.0
53 H23	8.8482  1.6987  -0.5384 H	1 RES1 0.0
54 C29	7.0121  2.6102  -0.2902 C.3	1 RES1 0.0
55 H24	7.0786  3.5959  -0.3478 H	1 RES1 0.0
56 H25	6.8523  2.265  -1.203 H	1 RES1 0.0
57 C30	5.8272  2.2489  0.5849 C.3	1 RES1 0.0
58 H26	5.483  1.3809  0.2592 H	1 RES1 0.0
59 H27	5.1227  2.92  0.4032 H	1 RES1 0.0
60 C31	5.9474  2.1343  2.0959 C.3	1 RES1 0.0
61 H28	5.1188  1.7746  2.5014 H	1 RES1 0.0
62 H29	6.715  1.5681  2.3574 H	1 RES1 0.0
63 C32	-0.4063  5.4108  5.7161 C.3	1 RES1 0.0
64 H30	0.0187  4.8542  6.4295 H	1 RES1 0.0
65 C33	-1.5624  4.5606  5.1711 C.3	1 RES1 0.0
66 H31	-1.1701  3.7282  4.81 H	1 RES1 0.0
67 H32	-2.1251  4.3009  5.9421 H	1 RES1 0.0
68 C34	-2.4883  5.1156  4.1099 C.3	1 RES1 0.0
69 H33	-1.9334  5.3834  3.3344 H	1 RES1 0.0
70 H34	-3.0762  4.3799  3.8063 H	1 RES1 0.0
71 C35	-3.353  6.2691  4.4643 C.3	1 RES1 0.0
72 H35	-4.0678  6.3352  3.782 H	1 RES1 0.0
73 H36	-2.8076  7.0918  4.4001 H	1 RES1 0.0
74 C36	-4.0061  6.2497  5.8203 C.3	1 RES1 0.0
75 H37	-4.9278  6.5917  5.7139 H	1 RES1 0.0
76 H38	-4.0783  5.3027  6.1039 H	1 RES1 0.0
77 C37	-3.3708  7.0047  6.9325 C.3	1 RES1 0.0
78 H39	-3.9858  6.9644  7.7079 H	1 RES1 0.0
79 H40	-3.3199  7.9549  6.6555 H	1 RES1 0.0
80 C38	-1.9355  6.5852  7.4465 C.3	1 RES1 0.0
81 H41	-1.706  7.1402  8.233 H	1 RES1 0.0
82 H42	-1.9711  5.6415  7.7456 H	1 RES1 0.0
83 C39	-0.8097  6.7256  6.403 C.3	1 RES1 0.0
84 H43	-1.103  7.3693  5.7095 H	1 RES1 0.0
85 H44	-0.0126  7.1079  6.8483 H	1 RES1 0.0
86 C40	-2.0583  1.2277  9.312 C.3	1 RES1 0.0
87 H45	-2.6349  1.239  10.1295 H	1 RES1 0.0
88 C41	-2.2477  0.0032  8.7714 C.3	1 RES1 0.0
89 H46	-3.2205  -0.1758  8.716 H	1 RES1 0.0
90 H47	-1.8499  -0.6776  9.3718 H	1 RES1 0.0
91 C42	-1.6791  -0.1387  7.4731 C.3	1 RES1 0.0
92 H48	-1.9744  -1.0292  7.1563 H	1 RES1 0.0
93 H49	-0.7035  -0.2146  7.6259 H	1 RES1 0.0
94 C43	-1.8261  0.776  6.2789 C.3	1 RES1 0.0
95 H50	-1.2196  0.4646  5.5588 H	1 RES1 0.0
96 H51	-1.5435  1.6891  6.5359 H	1 RES1 0.0
97 C44	-3.2398  0.8292  5.7405 C.3	1 RES1 0.0
98 H52	-3.6145  -0.0871  5.7737 H	1 RES1 0.0
99 H53	-3.195  1.0938  4.7878 H	1 RES1 0.0
100 C45	-4.2197  1.76  6.4384 C.3	1 RES1 0.0
101 H54	-5.0691  1.2583  6.5248 H	1 RES1 0.0
102 H55	-4.3952  2.5037  5.8114 H	1 RES1 0.0
103 C46	-3.9542  2.3957  7.7988 C.3	1 RES1 0.0
104 H56	-4.2143  3.3475  7.7234 H	1 RES1 0.0
105 H57	-4.5856  1.9778  8.4368 H	1 RES1 0.0
106 C47	-2.5795  2.3618  8.4501 C.3	1 RES1 0.0
107 H58	-1.9244  2.4747  7.7168 H	1 RES1 0.0
108 H59	-2.5192  3.1797  9.0062 H	1 RES1 0.0
109 C48	5.2105  3.1329  8.5077 C.3	1 RES1 0.0
110 H60	4.8375  3.5572  7.6836 H	1 RES1 0.0
111 C49	5.854  4.2428  9.3452 C.3	1 RES1 0.0
112 H61	5.1472  4.9091  9.5358 H	1 RES1 0.0
113 H62	6.109  3.8411  10.2115 H	1 RES1 0.0
114 C50	7.058  5.0107  8.8467 C.3	1 RES1 0.0
115 H63	7.1713  5.756  9.487 H	1 RES1 0.0
116 H64	7.8276  4.4074  8.9929 H	1 RES1 0.0
117 C51	7.2854  5.6205  7.4842 C.3	1 RES1 0.0
118 H65	8.2346  5.8948  7.4243 H	1 RES1 0.0
119 H66	6.7355  6.4417  7.4177 H	1 RES1 0.0
120 C52	6.9707  4.7397  6.2922 C.3	1 RES1 0.0
121 H67	5.9914  4.5961  6.2612 H	1 RES1 0.0
122 H68	7.2239  5.2285  5.468 H	1 RES1 0.0
123 C53	7.6519  3.391  6.2722 C.3	1 RES1 0.0
124 H69	7.9746  3.2313  5.3506 H	1 RES1 0.0
125 H70	8.4503  3.4475  6.8549 H	1 RES1 0.0
126 C54	6.8587  2.1795  6.6976 C.3	1 RES1 0.0
127 H71	7.4602  1.3987  6.5979 H	1 RES1 0.0
128 H72	6.1359  2.0649  6.0285 H	1 RES1 0.0
129 C55	6.2062  2.052  8.0624 C.3	1 RES1 0.0
130 H73	6.9303  2.0149  8.7382 H	1 RES1 0.0
131 H74	5.7365  1.1809  8.0912 H	1 RES1 0.0
@<TRIPOS>BOND
1 1 3 1
1 1 7 1
1 1 10 1
1 2 3 1
1 2 4 1
1 2 25 1
1 4 5 1
1 4 6 1
1 4 7 1
1 7 8 1
1 7 9 1
1 10 11 ar
1 10 24 ar
1 11 12 ar
1 11 19 ar
1 12 13 1
1 12 14 ar
1 14 15 ar
1 14 40 1
1 15 16 1
1 15 17 ar
1 17 18 1
1 17 19 ar
1 19 20 ar
1 20 21 1
1 20 22 ar
1 22 23 1
1 22 24 ar
1 24 63 1
1 25 26 ar
1 25 39 ar
1 26 27 ar
1 26 34 ar
1 27 28 1
1 27 29 ar
1 29 30 ar
1 29 86 1
1 30 31 1
1 30 32 ar
1 32 33 1
1 32 34 ar
1 34 35 ar
1 35 36 1
1 35 37 ar
1 37 38 1
1 37 39 ar
1 39 109 1
1 40 41 1
1 40 42 1
1 40 60 1
1 42 43 1
1 42 44 1
1 42 45 1
1 45 46 1
1 45 47 1
1 45 48 1
1 48 49 1
1 48 50 1
1 48 51 1
1 51 52 1
1 51 53 1
1 51 54 1
1 54 55 1
1 54 56 1
1 54 57 1
1 57 58 1
1 57 59 1
1 57 60 1
1 60 61 1
1 60 62 1
1 63 64 1
1 63 65 1
1 63 83 1
1 65 66 1
1 65 67 1
1 65 68 1
1 68 69 1
1 68 70 1
1 68 71 1
1 71 72 1
1 71 73 1
1 71 74 1
1 74 75 1
1 74 76 1
1 74 77 1
1 77 78 1
1 77 79 1
1 77 80 1
1 80 81 1
1 80 82 1
1 80 83 1
1 83 84 1
1 83 85 1
1 86 87 1
1 86 88 1
1 86 106 1
1 88 89 1
1 88 90 1
1 88 91 1
1 91 92 1
1 91 93 1
1 91 94 1
1 94 95 1
1 94 96 1
1 94 97 1
1 97 98 1
1 97 99 1
1 97 100 1
1 100 101 1
1 100 102 1
1 100 103 1
1 103 104 1
1 103 105 1
1 103 106 1
1 106 107 1
1 106 108 1
1 109 110 1
1 109 111 1
1 109 129 1
1 111 112 1
1 111 113 1
1 111 114 1
1 114 115 1
1 114 116 1
1 114 117 1
1 117 118 1
1 117 119 1
1 117 120 1
1 120 121 1
1 120 122 1
1 120 123 1
1 123 124 1
1 123 125 1
1 123 126 1
1 126 127 1
1 126 128 1
1 126 129 1
1 129 130 1
1 129 131 1
@<TRIPOS>SUBSTRUCTURE
1 RES1 131

