@<TRIPOS>MOLECULE

50	52	1
SMALL
PartialCharges
****
Generated from molSimplify

@<TRIPOS>ATOM
1 N1	8.836  3.9137  13.3462 N.pl3	1 RES1 0.0
2 N2	10.6642  3.4398  12.313 N.pl3	1 RES1 0.0
3 C1	9.4922  4.0738  12.1676 C.3	1 RES1 0.0
4 C2	9.625  3.1934  14.2338 C.2	1 RES1 0.0
5 H1	9.4011  2.9572  15.1262 H	1 RES1 0.0
6 C3	10.7651  2.8942  13.5894 C.2	1 RES1 0.0
7 H2	11.5  2.4038  13.9385 H	1 RES1 0.0
8 C4	7.4801  4.3315  13.6005 C.ar	1 RES1 0.0
9 C5	7.2371  5.4423  14.4135 C.ar	1 RES1 0.0
10 C6	5.9063  5.8236  14.6055 C.ar	1 RES1 0.0
11 H3	5.7152  6.5651  15.1678 H	1 RES1 0.0
12 C7	4.8527  5.1471  13.9956 C.ar	1 RES1 0.0
13 C8	5.1391  4.0216  13.2325 C.ar	1 RES1 0.0
14 H4	4.4251  3.5467  12.8234 H	1 RES1 0.0
15 C9	6.445  3.5702  13.0506 C.ar	1 RES1 0.0
16 C10	8.3628  6.2003  15.0635 C.3	1 RES1 0.0
17 H5	7.9988  6.9602  15.5638 H	1 RES1 0.0
18 H6	8.9775  6.5273  14.3739 H	1 RES1 0.0
19 H7	8.8453  5.6067  15.6762 H	1 RES1 0.0
20 C11	3.4277  5.5963  14.1805 C.3	1 RES1 0.0
21 H8	3.4145  6.4561  14.6506 H	1 RES1 0.0
22 H9	2.9403  4.9287  14.7068 H	1 RES1 0.0
23 H10	3.0005  5.6968  13.3041 H	1 RES1 0.0
24 C12	6.7121  2.2627  12.358 C.3	1 RES1 0.0
25 H11	5.861  1.8248  12.1474 H	1 RES1 0.0
26 H12	7.2407  1.6836  12.946 H	1 RES1 0.0
27 H13	7.2086  2.4274  11.5293 H	1 RES1 0.0
28 C13	11.7233  3.4032  11.2876 C.3	1 RES1 0.0
29 H14	11.344  3.8013  10.4523 H	1 RES1 0.0
30 C14	12.8657  4.3083  11.7459 C.3	1 RES1 0.0
31 H15	12.4693  5.1668  12.0373 H	1 RES1 0.0
32 H16	13.2754  3.8913  12.5452 H	1 RES1 0.0
33 C15	13.9731  4.6226  10.7791 C.3	1 RES1 0.0
34 H17	14.5677  3.8354  10.6966 H	1 RES1 0.0
35 H18	14.5104  5.3751  11.1322 H	1 RES1 0.0
36 C16	13.4138  5.0058  9.3503 C.3	1 RES1 0.0
37 H19	12.4645  5.2729  9.4385 H	1 RES1 0.0
38 H20	13.9162  5.7875  9.0086 H	1 RES1 0.0
39 C17	13.515  3.8804  8.3427 C.3	1 RES1 0.0
40 H21	13.2663  4.2526  7.4598 H	1 RES1 0.0
41 H22	14.4682  3.62  8.2871 H	1 RES1 0.0
42 C18	12.7162  2.6147  8.5353 C.3	1 RES1 0.0
43 H23	12.8565  2.0349  7.745 H	1 RES1 0.0
44 H24	11.7556  2.8536  8.56 H	1 RES1 0.0
45 C19	13.0471  1.7867  9.8129 C.3	1 RES1 0.0
46 H25	13.0738  0.8291  9.565 H	1 RES1 0.0
47 H26	13.9529  2.0395  10.121 H	1 RES1 0.0
48 C20	12.08  1.9531  10.9798 C.3	1 RES1 0.0
49 H27	12.4829  1.5461  11.7873 H	1 RES1 0.0
50 H28	11.2477  1.4569  10.7768 H	1 RES1 0.0
@<TRIPOS>BOND
1 1 3 1
1 1 4 1
1 1 8 1
1 2 3 1
1 2 6 1
1 2 28 1
1 4 5 1
1 4 6 2
1 6 7 1
1 8 9 ar
1 8 15 ar
1 9 10 ar
1 9 16 1
1 10 11 1
1 10 12 ar
1 12 13 ar
1 12 20 1
1 13 14 1
1 13 15 ar
1 15 24 1
1 16 17 1
1 16 18 1
1 16 19 1
1 20 21 1
1 20 22 1
1 20 23 1
1 24 25 1
1 24 26 1
1 24 27 1
1 28 29 1
1 28 30 1
1 28 48 1
1 30 31 1
1 30 32 1
1 30 33 1
1 33 34 1
1 33 35 1
1 33 36 1
1 36 37 1
1 36 38 1
1 36 39 1
1 39 40 1
1 39 41 1
1 39 42 1
1 42 43 1
1 42 44 1
1 42 45 1
1 45 46 1
1 45 47 1
1 45 48 1
1 48 49 1
1 48 50 1
@<TRIPOS>SUBSTRUCTURE
1 RES1 50

