@<TRIPOS>MOLECULE

35	36	1
SMALL
PartialCharges
****
Generated from molSimplify

@<TRIPOS>ATOM
1 Cl1	3.4805  7.2199  3.6064 Cl	1 RES1 0.0
2 C1	3.0144  9.2947  -1.17 C.3	1 RES1 0.0
3 H1	3.0254  10.167  -1.6172 H	1 RES1 0.0
4 H2	2.1445  8.8653  -1.3135 H	1 RES1 0.0
5 H3	3.7237  8.7281  -1.5397 H	1 RES1 0.0
6 S1	3.7286  3.6991  -0.3253 S.o2	1 RES1 0.0
7 O1	4.2725  3.3196  -1.5945 O.2	1 RES1 0.0
8 O2	4.5635  4.3008  0.6735 O.2	1 RES1 0.0
9 N1	2.8862  7.1051  0.6447 N.pl3	1 RES1 0.0
10 N2	1.6928  5.2059  0.2818 N.pl3	1 RES1 0.0
11 N3	2.5855  4.8383  -0.741 N.pl3	1 RES1 0.0
12 C2	1.7907  6.4059  0.8602 C.2	1 RES1 0.0
13 C3	3.1486  8.4051  1.1711 C.ar	1 RES1 0.0
14 C4	3.4319  8.584  2.5246 C.ar	1 RES1 0.0
15 C5	3.7562  9.848  3.0111 C.ar	1 RES1 0.0
16 H4	3.9293  9.9762  3.9363 H	1 RES1 0.0
17 C6	3.8247  10.9157  2.1314 C.ar	1 RES1 0.0
18 H5	4.05  11.7794  2.4562 H	1 RES1 0.0
19 C7	3.5685  10.7363  0.7843 C.ar	1 RES1 0.0
20 H6	3.6181  11.4796  0.1948 H	1 RES1 0.0
21 C8	3.2386  9.4823  0.2824 C.ar	1 RES1 0.0
22 C9	2.8789  2.3408  0.3916 C.ar	1 RES1 0.0
23 C10	2.7499  2.263  1.7748 C.ar	1 RES1 0.0
24 H7	3.1195  2.935  2.3358 H	1 RES1 0.0
25 C11	2.0677  1.1784  2.3194 C.ar	1 RES1 0.0
26 H8	1.9689  1.1057  3.2617 H	1 RES1 0.0
27 C12	1.5305  0.2016  1.4896 C.ar	1 RES1 0.0
28 H9	1.0714  -0.5395  1.8686 H	1 RES1 0.0
29 C13	1.6602  0.3006  0.1107 C.ar	1 RES1 0.0
30 H10	1.2883  -0.3711  -0.4493 H	1 RES1 0.0
31 C14	2.3307  1.3772  -0.4536 C.ar	1 RES1 0.0
32 H11	2.4147  1.4557  -1.3962 H	1 RES1 0.0
33 H12	3.4764  6.7423  0.1445 H	1 RES1 0.0
34 H13	0.965  4.7701  0.3341 H	1 RES1 0.0
35 H14	2.1539  4.6219  -1.4046 H	1 RES1 0.0
@<TRIPOS>BOND
1 1 14 1
1 2 3 1
1 2 4 1
1 2 5 1
1 2 21 1
1 6 7 2
1 6 8 2
1 6 11 1
1 6 22 1
1 9 12 1
1 9 13 1
1 9 33 1
1 10 11 1
1 10 12 1
1 10 34 1
1 11 35 1
1 13 14 ar
1 13 21 ar
1 14 15 ar
1 15 16 1
1 15 17 ar
1 17 18 1
1 17 19 ar
1 19 20 1
1 19 21 ar
1 22 23 ar
1 22 31 ar
1 23 24 1
1 23 25 ar
1 25 26 1
1 25 27 ar
1 27 28 1
1 27 29 ar
1 29 30 1
1 29 31 ar
1 31 32 1
@<TRIPOS>SUBSTRUCTURE
1 RES1 35

