@<TRIPOS>MOLECULE

65	67	1
SMALL
PartialCharges
****
Generated from molSimplify

@<TRIPOS>ATOM
1 Cl1	4.2314  3.4388  7.6583 Cl	1 RES1 0.0
2 Cl2	4.339  0.216  6.4412 Cl	1 RES1 0.0
3 N1	1.8817  3.1938  6.2782 N.pl3	1 RES1 0.0
4 N2	1.9262  1.1425  5.6034 N.pl3	1 RES1 0.0
5 C1	1.1508  2.2682  5.5962 C.3	1 RES1 0.0
6 C2	3.0908  2.6394  6.6945 C.2	1 RES1 0.0
7 C3	3.121  1.3782  6.261 C.2	1 RES1 0.0
8 C4	1.4485  4.5048  6.7243 C.ar	1 RES1 0.0
9 C5	0.6155  4.5724  7.8576 C.ar	1 RES1 0.0
10 C6	0.3851  5.8288  8.403 C.ar	1 RES1 0.0
11 H1	-0.1688  5.9125  9.1709 H	1 RES1 0.0
12 C7	0.9517  6.9638  7.8442 C.ar	1 RES1 0.0
13 H2	0.8128  7.8115  8.252 H	1 RES1 0.0
14 C8	1.7151  6.8693  6.7021 C.ar	1 RES1 0.0
15 H3	2.0695  7.6599  6.3142 H	1 RES1 0.0
16 C9	1.9796  5.6371  6.1037 C.ar	1 RES1 0.0
17 C10	-0.0091  3.3435  8.4913 C.3	1 RES1 0.0
18 H4	0.0818  2.5856  7.8436 H	1 RES1 0.0
19 C11	0.7151  2.9495  9.775 C.3	1 RES1 0.0
20 H5	1.6634  2.7974  9.5812 H	1 RES1 0.0
21 H6	0.3192  2.1291  10.1349 H	1 RES1 0.0
22 H7	0.6268  3.6702  10.4333 H	1 RES1 0.0
23 C12	-1.5058  3.5606  8.7527 C.3	1 RES1 0.0
24 H8	-1.6201  4.2125  9.4752 H	1 RES1 0.0
25 H9	-1.918  2.7097  9.0118 H	1 RES1 0.0
26 H10	-1.9346  3.8966  7.9379 H	1 RES1 0.0
27 C13	2.7969  5.588  4.8252 C.3	1 RES1 0.0
28 H11	2.777  4.6489  4.4804 H	1 RES1 0.0
29 C14	4.2588  5.974  5.0668 C.3	1 RES1 0.0
30 H12	4.3022  6.893  5.4071 H	1 RES1 0.0
31 H13	4.7558  5.9143  4.2252 H	1 RES1 0.0
32 H14	4.6535  5.3628  5.7232 H	1 RES1 0.0
33 C15	2.1779  6.4999  3.7604 C.3	1 RES1 0.0
34 H15	1.266  6.1991  3.5635 H	1 RES1 0.0
35 H16	2.7178  6.4621  2.9431 H	1 RES1 0.0
36 H17	2.1533  7.4207  4.0936 H	1 RES1 0.0
37 C16	1.4828  -0.1758  5.1805 C.ar	1 RES1 0.0
38 C17	1.093  -1.0859  6.1767 C.ar	1 RES1 0.0
39 C18	0.6067  -2.3208  5.7448 C.ar	1 RES1 0.0
40 H18	0.3148  -2.9581  6.3868 H	1 RES1 0.0
41 C19	0.5428  -2.6294  4.4095 C.ar	1 RES1 0.0
42 H19	0.1917  -3.4693  4.1388 H	1 RES1 0.0
43 C20	0.9824  -1.7316  3.4514 C.ar	1 RES1 0.0
44 H20	0.9516  -1.9739  2.5327 H	1 RES1 0.0
45 C21	1.4716  -0.4777  3.813 C.ar	1 RES1 0.0
46 C22	1.1881  -0.8093  7.6707 C.3	1 RES1 0.0
47 H21	1.6094  0.0895  7.7906 H	1 RES1 0.0
48 C23	2.0624  -1.8387  8.3771 C.3	1 RES1 0.0
49 H22	1.6352  -2.7189  8.3286 H	1 RES1 0.0
50 H23	2.1748  -1.5813  9.3161 H	1 RES1 0.0
51 H24	2.9399  -1.8753  7.9418 H	1 RES1 0.0
52 C24	-0.1897  -0.7742  8.3274 C.3	1 RES1 0.0
53 H25	-0.7192  -0.0493  7.9359 H	1 RES1 0.0
54 H26	-0.0889  -0.6227  9.2906 H	1 RES1 0.0
55 H27	-0.6456  -1.6288  8.1774 H	1 RES1 0.0
56 C25	2.0336  0.4627  2.7615 C.3	1 RES1 0.0
57 H28	2.0398  1.3859  3.1473 H	1 RES1 0.0
58 C26	3.4944  0.0694  2.4497 C.3	1 RES1 0.0
59 H29	4.0365  0.1534  3.2611 H	1 RES1 0.0
60 H30	3.852  0.6628  1.7552 H	1 RES1 0.0
61 H31	3.5228  -0.8582  2.1322 H	1 RES1 0.0
62 C27	1.1905  0.4912  1.4886 C.3	1 RES1 0.0
63 H32	1.2298  -0.3835  1.0504 H	1 RES1 0.0
64 H33	1.5402  1.1759  0.8815 H	1 RES1 0.0
65 H34	0.2608  0.7012  1.7179 H	1 RES1 0.0
@<TRIPOS>BOND
1 1 6 1
1 2 7 1
1 3 5 1
1 3 6 1
1 3 8 1
1 4 5 1
1 4 7 1
1 4 37 1
1 6 7 2
1 8 9 ar
1 8 16 ar
1 9 10 ar
1 9 17 1
1 10 11 1
1 10 12 ar
1 12 13 1
1 12 14 ar
1 14 15 1
1 14 16 ar
1 16 27 1
1 17 18 1
1 17 19 1
1 17 23 1
1 19 20 1
1 19 21 1
1 19 22 1
1 23 24 1
1 23 25 1
1 23 26 1
1 27 28 1
1 27 29 1
1 27 33 1
1 29 30 1
1 29 31 1
1 29 32 1
1 33 34 1
1 33 35 1
1 33 36 1
1 37 38 ar
1 37 45 ar
1 38 39 ar
1 38 46 1
1 39 40 1
1 39 41 ar
1 41 42 1
1 41 43 ar
1 43 44 1
1 43 45 ar
1 45 56 1
1 46 47 1
1 46 48 1
1 46 52 1
1 48 49 1
1 48 50 1
1 48 51 1
1 52 53 1
1 52 54 1
1 52 55 1
1 56 57 1
1 56 58 1
1 56 62 1
1 58 59 1
1 58 60 1
1 58 61 1
1 62 63 1
1 62 64 1
1 62 65 1
@<TRIPOS>SUBSTRUCTURE
1 RES1 65

