@<TRIPOS>MOLECULE

129	139	1
SMALL
PartialCharges
****
Generated from molSimplify

@<TRIPOS>ATOM
1 O1	17.1745  6.8636  14.3712 O.3	1 RES1 0.0
2 O2	8.9197  14.8545  19.6641 O.3	1 RES1 0.0
3 N1	12.552  10.6505  19.1411 N.pl3	1 RES1 0.0
4 N2	13.9273  9.2878  18.1957 N.pl3	1 RES1 0.0
5 C1	13.2106  10.422  17.9798 C.3	1 RES1 0.0
6 C2	12.8663  9.6719  20.0836 C.2	1 RES1 0.0
7 H1	12.5445  9.6196  20.9765 H	1 RES1 0.0
8 C3	13.7084  8.8222  19.4855 C.2	1 RES1 0.0
9 H2	14.0883  8.0426  19.873 H	1 RES1 0.0
10 C4	14.8045  8.6323  17.2555 C.ar	1 RES1 0.0
11 C5	16.1867  8.5955  17.4847 C.ar	1 RES1 0.0
12 C6	17.0113  8.0264  16.5029 C.ar	1 RES1 0.0
13 H3	17.9548  8.0471  16.6103 H	1 RES1 0.0
14 C7	16.4586  7.4338  15.3793 C.ar	1 RES1 0.0
15 C8	15.0744  7.3696  15.2362 C.ar	1 RES1 0.0
16 H4	14.7047  6.9076  14.4923 H	1 RES1 0.0
17 C9	14.2322  7.9625  16.152 C.ar	1 RES1 0.0
18 C10	16.8163  8.9898  18.8261 C.3	1 RES1 0.0
19 H5	16.1902  9.6316  19.2675 H	1 RES1 0.0
20 C11	16.9329  7.7708  19.7446 C.ar	1 RES1 0.0
21 C12	16.5883  7.8817  21.0921 C.ar	1 RES1 0.0
22 H6	16.2124  8.692  21.4152 H	1 RES1 0.0
23 C13	16.7867  6.8174  21.9708 C.ar	1 RES1 0.0
24 H7	16.5379  6.9076  22.8843 H	1 RES1 0.0
25 C14	17.3384  5.6403  21.5276 C.ar	1 RES1 0.0
26 H8	17.4801  4.9203  22.1303 H	1 RES1 0.0
27 C15	17.6834  5.5126  20.2008 C.ar	1 RES1 0.0
28 H9	18.0623  4.6993  19.8867 H	1 RES1 0.0
29 C16	17.4829  6.5649  19.3171 C.ar	1 RES1 0.0
30 H10	17.7261  6.4611  18.4039 H	1 RES1 0.0
31 C17	18.3  10.8019  17.8587 C.ar	1 RES1 0.0
32 H11	17.5637  11.0672  17.3209 H	1 RES1 0.0
33 C18	18.1713  9.7043  18.6865 C.ar	1 RES1 0.0
34 C19	19.486  11.5302  17.7927 C.ar	1 RES1 0.0
35 H12	19.546  12.2894  17.2249 H	1 RES1 0.0
36 C20	20.5664  11.1514  18.5471 C.ar	1 RES1 0.0
37 H13	21.3735  11.6505  18.5158 H	1 RES1 0.0
38 C21	20.4663  10.0465  19.3463 C.ar	1 RES1 0.0
39 H14	21.2175  9.7654  19.8547 H	1 RES1 0.0
40 C22	19.2761  9.3249  19.4258 C.ar	1 RES1 0.0
41 H15	19.2227  8.5657  19.9941 H	1 RES1 0.0
42 C23	12.7172  7.7982  16.0201 C.3	1 RES1 0.0
43 H16	12.309  8.689  16.2196 H	1 RES1 0.0
44 C24	12.1474  6.8126  17.0392 C.ar	1 RES1 0.0
45 C25	10.7567  6.7532  17.1772 C.ar	1 RES1 0.0
46 H17	10.2162  7.3646  16.6903 H	1 RES1 0.0
47 C26	10.1531  5.8252  18.004 C.ar	1 RES1 0.0
48 H18	9.2058  5.7892  18.0634 H	1 RES1 0.0
49 C27	10.9236  4.9563  18.7399 C.ar	1 RES1 0.0
50 H19	10.5117  4.319  19.3132 H	1 RES1 0.0
51 C28	12.3011  5.0133  18.641 C.ar	1 RES1 0.0
52 H20	12.8353  4.4227  19.1578 H	1 RES1 0.0
53 C29	12.9109  5.9311  17.7892 C.ar	1 RES1 0.0
54 H21	13.8585  5.953  17.7207 H	1 RES1 0.0
55 C30	12.3072  7.4309  14.5931 C.ar	1 RES1 0.0
56 C31	12.0508  6.128  14.2086 C.ar	1 RES1 0.0
57 H22	12.1192  5.4269  14.8465 H	1 RES1 0.0
58 C32	11.6936  5.8373  12.8982 C.ar	1 RES1 0.0
59 H23	11.5262  4.9368  12.6439 H	1 RES1 0.0
60 C33	11.5811  6.8445  11.9674 C.ar	1 RES1 0.0
61 H24	11.3265  6.6445  11.0743 H	1 RES1 0.0
62 C34	11.84  8.1493  12.338 C.ar	1 RES1 0.0
63 H25	11.7682  8.8484  11.698 H	1 RES1 0.0
64 C35	12.2046  8.4414  13.6467 C.ar	1 RES1 0.0
65 H26	12.3844  9.3399  13.896 H	1 RES1 0.0
66 C36	18.5928  6.9061  14.4752 C.3	1 RES1 0.0
67 H27	18.9903  6.4672  13.6949 H	1 RES1 0.0
68 H28	18.8899  7.8397  14.5106 H	1 RES1 0.0
69 H29	18.8744  6.4416  15.292 H	1 RES1 0.0
70 C37	11.6222  11.7461  19.3621 C.ar	1 RES1 0.0
71 C38	10.2357  11.5096  19.3045 C.ar	1 RES1 0.0
72 C39	9.3788  12.5907  19.3982 C.ar	1 RES1 0.0
73 H30	8.443  12.4548  19.3132 H	1 RES1 0.0
74 C40	9.8675  13.8695  19.6141 C.ar	1 RES1 0.0
75 C41	11.2297  14.0849  19.7889 C.ar	1 RES1 0.0
76 H31	11.5521  14.9547  19.9963 H	1 RES1 0.0
77 C42	12.1214  13.0238  19.6587 C.ar	1 RES1 0.0
78 C43	9.2502  16.078  20.2979 C.3	1 RES1 0.0
79 H32	8.4814  16.685  20.2591 H	1 RES1 0.0
80 H33	9.4843  15.9078  21.2347 H	1 RES1 0.0
81 H34	10.0139  16.4881  19.8387 H	1 RES1 0.0
82 C44	9.6938  10.0811  19.3543 C.3	1 RES1 0.0
83 H35	10.2499  9.5233  18.7397 H	1 RES1 0.0
84 C45	9.8638  9.5233  20.7704 C.ar	1 RES1 0.0
85 C46	9.9544  8.1388  20.9573 C.ar	1 RES1 0.0
86 H36	9.8742  7.554  20.2134 H	1 RES1 0.0
87 C47	10.1598  7.6202  22.2258 C.ar	1 RES1 0.0
88 H37	10.218  6.6791  22.3451 H	1 RES1 0.0
89 C48	10.2809  8.4575  23.32 C.ar	1 RES1 0.0
90 H38	10.457  8.0982  24.182 H	1 RES1 0.0
91 C49	10.1456  9.8105  23.1525 C.ar	1 RES1 0.0
92 H39	10.1931  10.3862  23.9056 H	1 RES1 0.0
93 C50	9.9408  10.3425  21.8906 C.ar	1 RES1 0.0
94 H40	9.8521  11.2822  21.7899 H	1 RES1 0.0
95 C51	8.24  9.9506  18.9131 C.ar	1 RES1 0.0
96 C52	7.2013  10.1894  19.8072 C.ar	1 RES1 0.0
97 H41	7.3998  10.4058  20.7115 H	1 RES1 0.0
98 C53	5.8787  10.1153  19.3961 C.ar	1 RES1 0.0
99 H42	5.1798  10.3141  20.0078 H	1 RES1 0.0
100 C54	5.5775  9.7538  18.1023 C.ar	1 RES1 0.0
101 H43	4.6726  9.6992  17.819 H	1 RES1 0.0
102 C55	6.5985  9.4707  17.2178 C.ar	1 RES1 0.0
103 H44	6.3942  9.2016  16.3293 H	1 RES1 0.0
104 C56	7.931  9.5766  17.6197 C.ar	1 RES1 0.0
105 H45	8.6288  9.3911  17.001 H	1 RES1 0.0
106 C57	13.6095  13.205  19.96 C.3	1 RES1 0.0
107 H46	14.1166  12.796  19.2012 H	1 RES1 0.0
108 C58	14.0306  14.6748  20.0461 C.ar	1 RES1 0.0
109 C59	14.1146  15.3602  21.2486 C.ar	1 RES1 0.0
110 H47	13.8895  14.9171  22.0572 H	1 RES1 0.0
111 C60	14.5258  16.6925  21.2852 C.ar	1 RES1 0.0
112 H48	14.5871  17.148  22.1166 H	1 RES1 0.0
113 C61	14.8436  17.3468  20.1179 C.ar	1 RES1 0.0
114 H49	15.1201  18.2545  20.1426 H	1 RES1 0.0
115 C62	14.7589  16.6805  18.9108 C.ar	1 RES1 0.0
116 H50	14.9793  17.13  18.1023 H	1 RES1 0.0
117 C63	14.3505  15.3496  18.8779 C.ar	1 RES1 0.0
118 H51	14.2901  14.8976  18.0451 H	1 RES1 0.0
119 C64	13.9916  12.4349  21.223 C.ar	1 RES1 0.0
120 C65	13.1058  12.2517  22.274 C.ar	1 RES1 0.0
121 H52	12.2315  12.6171  22.2171 H	1 RES1 0.0
122 C66	13.4804  11.5393  23.4091 C.ar	1 RES1 0.0
123 H53	12.8495  11.401  24.1066 H	1 RES1 0.0
124 C67	14.7486  11.0357  23.5311 C.ar	1 RES1 0.0
125 H54	15.0062  10.5621  24.3123 H	1 RES1 0.0
126 C68	15.6406  11.2266  22.5057 C.ar	1 RES1 0.0
127 H55	16.5259  10.8943  22.5918 H	1 RES1 0.0
128 C69	15.2724  11.8999  21.3368 C.ar	1 RES1 0.0
129 H56	15.8934  11.9917  20.6247 H	1 RES1 0.0
@<TRIPOS>BOND
1 1 14 1
1 1 66 1
1 2 74 1
1 2 78 1
1 3 5 1
1 3 6 1
1 3 70 1
1 4 5 1
1 4 8 1
1 4 10 1
1 6 7 1
1 6 8 2
1 8 9 1
1 10 11 ar
1 10 17 ar
1 11 12 ar
1 11 18 1
1 12 13 1
1 12 14 ar
1 14 15 ar
1 15 16 1
1 15 17 ar
1 17 42 1
1 18 19 1
1 18 20 1
1 18 33 1
1 20 21 ar
1 20 29 ar
1 21 22 1
1 21 23 ar
1 23 24 1
1 23 25 ar
1 25 26 1
1 25 27 ar
1 27 28 1
1 27 29 ar
1 29 30 1
1 31 32 1
1 31 33 ar
1 31 34 ar
1 33 40 ar
1 34 35 1
1 34 36 ar
1 36 37 1
1 36 38 ar
1 38 39 1
1 38 40 ar
1 40 41 1
1 42 43 1
1 42 44 1
1 42 55 1
1 44 45 ar
1 44 53 ar
1 45 46 1
1 45 47 ar
1 47 48 1
1 47 49 ar
1 49 50 1
1 49 51 ar
1 51 52 1
1 51 53 ar
1 53 54 1
1 55 56 ar
1 55 64 ar
1 56 57 1
1 56 58 ar
1 58 59 1
1 58 60 ar
1 60 61 1
1 60 62 ar
1 62 63 1
1 62 64 ar
1 64 65 1
1 66 67 1
1 66 68 1
1 66 69 1
1 70 71 ar
1 70 77 ar
1 71 72 ar
1 71 82 1
1 72 73 1
1 72 74 ar
1 74 75 ar
1 75 76 1
1 75 77 ar
1 77 106 1
1 78 79 1
1 78 80 1
1 78 81 1
1 82 83 1
1 82 84 1
1 82 95 1
1 84 85 ar
1 84 93 ar
1 85 86 1
1 85 87 ar
1 87 88 1
1 87 89 ar
1 89 90 1
1 89 91 ar
1 91 92 1
1 91 93 ar
1 93 94 1
1 95 96 ar
1 95 104 ar
1 96 97 1
1 96 98 ar
1 98 99 1
1 98 100 ar
1 100 101 1
1 100 102 ar
1 102 103 1
1 102 104 ar
1 104 105 1
1 106 107 1
1 106 108 1
1 106 119 1
1 108 109 ar
1 108 117 ar
1 109 110 1
1 109 111 ar
1 111 112 1
1 111 113 ar
1 113 114 1
1 113 115 ar
1 115 116 1
1 115 117 ar
1 117 118 1
1 119 120 ar
1 119 128 ar
1 120 121 1
1 120 122 ar
1 122 123 1
1 122 124 ar
1 124 125 1
1 124 126 ar
1 126 127 1
1 126 128 ar
1 128 129 1
@<TRIPOS>SUBSTRUCTURE
1 RES1 129

