@<TRIPOS>MOLECULE

43	45	1
SMALL
PartialCharges
****
Generated from molSimplify

@<TRIPOS>ATOM
1 N1	2.4765  6.8939  5.031 N.pl3	1 RES1 0.0
2 N2	2.5723  8.691  6.2475 N.pl3	1 RES1 0.0
3 C1	1.8497  7.6008  5.9775 C.3	1 RES1 0.0
4 C2	3.7179  8.8477  5.3277 C.3	1 RES1 0.0
5 H1	4.5342  9.0511  5.812 H	1 RES1 0.0
6 H2	3.5522  9.5449  4.6741 H	1 RES1 0.0
7 C3	3.7889  7.4751  4.6699 C.3	1 RES1 0.0
8 H3	3.8901  7.548  3.7082 H	1 RES1 0.0
9 H4	4.5191  6.9477  5.0293 H	1 RES1 0.0
10 C4	2.2527  9.7352  7.1957 C.ar	1 RES1 0.0
11 C5	2.9934  9.8135  8.3801 C.ar	1 RES1 0.0
12 C6	2.6794  10.85  9.2716 C.ar	1 RES1 0.0
13 H5	3.1523  10.9294  10.0684 H	1 RES1 0.0
14 C7	1.6806  11.7505  8.9831 C.ar	1 RES1 0.0
15 H6	1.4702  12.4194  9.5937 H	1 RES1 0.0
16 C8	0.9979  11.6711  7.8118 C.ar	1 RES1 0.0
17 H7	0.3341  12.2965  7.6286 H	1 RES1 0.0
18 C9	1.2707  10.6738  6.8797 C.ar	1 RES1 0.0
19 C10	4.0876  8.839  8.6986 C.3	1 RES1 0.0
20 H8	3.7672  7.9439  8.5626 H	1 RES1 0.0
21 H9	4.3548  8.9467  9.6146 H	1 RES1 0.0
22 H10	4.8377  9.0021  8.1241 H	1 RES1 0.0
23 C11	0.5299  10.6531  5.5831 C.3	1 RES1 0.0
24 H11	-0.1966  10.0278  5.64 H	1 RES1 0.0
25 H12	1.127  10.3878  4.8781 H	1 RES1 0.0
26 H13	0.1848  11.5287  5.3971 H	1 RES1 0.0
27 C12	2.0771  5.6031  4.5163 C.ar	1 RES1 0.0
28 C13	2.32  4.4614  5.2852 C.ar	1 RES1 0.0
29 C14	1.9439  3.228  4.7476 C.ar	1 RES1 0.0
30 H14	2.0942  2.4515  5.2361 H	1 RES1 0.0
31 C15	1.3577  3.1421  3.5125 C.ar	1 RES1 0.0
32 H15	1.0889  2.3155  3.1836 H	1 RES1 0.0
33 C16	1.1659  4.2743  2.7575 C.ar	1 RES1 0.0
34 H16	0.7818  4.2047  1.9138 H	1 RES1 0.0
35 C17	1.5407  5.5261  3.2435 C.ar	1 RES1 0.0
36 C18	1.3816  6.7388  2.3565 C.3	1 RES1 0.0
37 H17	2.1453  6.8161  1.7805 H	1 RES1 0.0
38 H18	1.3098  7.5263  2.9005 H	1 RES1 0.0
39 H19	0.5878  6.6442  1.8249 H	1 RES1 0.0
40 C19	2.9823  4.5147  6.6267 C.3	1 RES1 0.0
41 H20	3.8947  4.7931  6.5212 H	1 RES1 0.0
42 H21	2.9572  3.6446  7.0305 H	1 RES1 0.0
43 H22	2.5197  5.1411  7.1873 H	1 RES1 0.0
@<TRIPOS>BOND
1 1 3 1
1 1 7 1
1 1 27 1
1 2 3 1
1 2 4 1
1 2 10 1
1 4 5 1
1 4 6 1
1 4 7 1
1 7 8 1
1 7 9 1
1 10 11 ar
1 10 18 ar
1 11 12 ar
1 11 19 1
1 12 13 1
1 12 14 ar
1 14 15 1
1 14 16 ar
1 16 17 1
1 16 18 ar
1 18 23 1
1 19 20 1
1 19 21 1
1 19 22 1
1 23 24 1
1 23 25 1
1 23 26 1
1 27 28 ar
1 27 35 ar
1 28 29 ar
1 28 40 1
1 29 30 1
1 29 31 ar
1 31 32 1
1 31 33 ar
1 33 34 1
1 33 35 ar
1 35 36 1
1 36 37 1
1 36 38 1
1 36 39 1
1 40 41 1
1 40 42 1
1 40 43 1
@<TRIPOS>SUBSTRUCTURE
1 RES1 43

