@<TRIPOS>MOLECULE

101	107	1
SMALL
PartialCharges
****
Generated from molSimplify

@<TRIPOS>ATOM
1 N1	6.5274  9.4381  11.7079 N.pl3	1 RES1 0.0
2 N2	6.8407  8.6256  13.6798 N.pl3	1 RES1 0.0
3 C1	7.4264  9.3218  12.6939 C.3	1 RES1 0.0
4 C2	5.1598  8.996  12.121 C.3	1 RES1 0.0
5 H1	4.7053  8.4849  11.4055 H	1 RES1 0.0
6 H2	4.5923  9.7585  12.3965 H	1 RES1 0.0
7 C3	5.5266  8.1137  13.2966 C.3	1 RES1 0.0
8 H3	4.8747  8.2094  14.0355 H	1 RES1 0.0
9 H4	5.5776  7.1615  13.0296 H	1 RES1 0.0
10 C4	6.6095  10.2545  10.5323 C.ar	1 RES1 0.0
11 C5	6.3795  11.6411  10.6261 C.ar	1 RES1 0.0
12 C6	6.3434  12.3702  9.4446 C.ar	1 RES1 0.0
13 H5	6.1639  13.3025  9.487 H	1 RES1 0.0
14 C7	6.5598  11.7885  8.2071 C.ar	1 RES1 0.0
15 C8	6.8146  10.4291  8.1592 C.ar	1 RES1 0.0
16 H6	6.9819  10.0235  7.3168 H	1 RES1 0.0
17 C9	6.8358  9.634  9.2989 C.ar	1 RES1 0.0
18 C10	7.0919  8.1234  9.247 C.3	1 RES1 0.0
19 H7	7.6814  7.9022  10.0235 H	1 RES1 0.0
20 C11	5.8399  7.2914  9.3967 C.ar	1 RES1 0.0
21 C12	5.8859  6.1376  10.1232 C.ar	1 RES1 0.0
22 H8	6.7062  5.8786  10.5251 H	1 RES1 0.0
23 C13	4.7831  5.3425  10.2868 C.ar	1 RES1 0.0
24 H9	4.8461  4.5537  10.812 H	1 RES1 0.0
25 C14	3.5969  5.6761  9.706 C.ar	1 RES1 0.0
26 H10	2.8371  5.115  9.8095 H	1 RES1 0.0
27 C15	3.5124  6.8454  8.9596 C.ar	1 RES1 0.0
28 H11	2.6888  7.103  8.5624 H	1 RES1 0.0
29 C16	4.6513  7.6347  8.7979 C.ar	1 RES1 0.0
30 H12	4.6055  8.4216  8.2669 H	1 RES1 0.0
31 C17	7.8516  7.7045  7.9756 C.3	1 RES1 0.0
32 H13	7.2655  7.8049  7.1969 H	1 RES1 0.0
33 H14	8.1323  6.7695  8.0559 H	1 RES1 0.0
34 H15	8.6415  8.2747  7.8656 H	1 RES1 0.0
35 C18	6.5324  12.6184  6.9277 C.3	1 RES1 0.0
36 H16	7.2129  12.2825  6.3064 H	1 RES1 0.0
37 H17	6.7209  13.5555  7.1422 H	1 RES1 0.0
38 H18	5.6483  12.5492  6.5114 H	1 RES1 0.0
39 C19	6.1283  12.312  11.9574 C.3	1 RES1 0.0
40 H19	6.0948  11.5848  12.6444 H	1 RES1 0.0
41 C20	7.2212  13.2836  12.4005 C.ar	1 RES1 0.0
42 C21	8.329  13.6074  11.7558 C.ar	1 RES1 0.0
43 H20	8.4807  13.1956  10.9129 H	1 RES1 0.0
44 C22	9.2789  14.4937  12.2089 C.ar	1 RES1 0.0
45 H21	10.002  14.7456  11.6463 H	1 RES1 0.0
46 C23	9.1856  15.0056  13.4503 C.ar	1 RES1 0.0
47 H22	9.709  15.7543  13.7076 H	1 RES1 0.0
48 C24	8.2681  14.387  14.3844 C.ar	1 RES1 0.0
49 H23	8.3324  14.5329  15.3206 H	1 RES1 0.0
50 C25	7.2734  13.5551  13.8295 C.ar	1 RES1 0.0
51 H24	6.6221  13.1655  14.4003 H	1 RES1 0.0
52 C26	4.7557  12.9985  11.9753 C.3	1 RES1 0.0
53 H25	4.784  13.7985  11.4103 H	1 RES1 0.0
54 H26	4.5302  13.2546  12.8938 H	1 RES1 0.0
55 H27	4.0771  12.38  11.6325 H	1 RES1 0.0
56 C27	7.4226  8.2339  14.9472 C.ar	1 RES1 0.0
57 C28	8.2096  7.0723  15.041 C.ar	1 RES1 0.0
58 C29	8.6212  6.6748  16.2865 C.ar	1 RES1 0.0
59 H28	9.1495  5.8888  16.3571 H	1 RES1 0.0
60 C30	8.3079  7.3612  17.4401 C.ar	1 RES1 0.0
61 C31	7.5843  8.5422  17.3104 C.ar	1 RES1 0.0
62 H29	7.4027  9.0559  18.0888 H	1 RES1 0.0
63 C32	7.1168  8.9999  16.0789 C.ar	1 RES1 0.0
64 C33	6.3372  10.2991  15.9671 C.3	1 RES1 0.0
65 H30	6.6195  10.741  15.1158 H	1 RES1 0.0
66 C34	4.839  10.0781  15.8833 C.ar	1 RES1 0.0
67 C35	4.1763  9.155  16.6617 C.ar	1 RES1 0.0
68 H31	4.6609  8.6369  17.2927 H	1 RES1 0.0
69 C36	2.8012  8.9727  16.53 C.ar	1 RES1 0.0
70 H32	2.3622  8.3289  17.0734 H	1 RES1 0.0
71 C37	2.0664  9.7077  15.6258 C.ar	1 RES1 0.0
72 H33	1.1289  9.5769  15.5475 H	1 RES1 0.0
73 C38	2.708  10.6269  14.8414 C.ar	1 RES1 0.0
74 H34	2.214  11.1241  14.2006 H	1 RES1 0.0
75 C39	4.098  10.846  14.9772 C.ar	1 RES1 0.0
76 H35	4.5288  11.5125  14.454 H	1 RES1 0.0
77 C40	6.6294  11.292  17.1148 C.3	1 RES1 0.0
78 H36	6.3489  10.8986  17.9664 H	1 RES1 0.0
79 H37	6.1358  12.1242  16.9596 H	1 RES1 0.0
80 H38	7.5907  11.4833  17.1435 H	1 RES1 0.0
81 C41	8.7293  6.9036  18.8113 C.3	1 RES1 0.0
82 H39	9.1298  7.6555  19.2959 H	1 RES1 0.0
83 H40	9.3859  6.182  18.7265 H	1 RES1 0.0
84 H41	7.9461  6.5786  19.3016 H	1 RES1 0.0
85 C42	8.5665  6.2326  13.7976 C.3	1 RES1 0.0
86 H42	8.4472  6.8202  12.9964 H	1 RES1 0.0
87 C43	10.0361  5.773  13.8156 C.ar	1 RES1 0.0
88 C44	10.9997  6.5487  13.1928 C.ar	1 RES1 0.0
89 H43	10.7385  7.3524  12.7596 H	1 RES1 0.0
90 C45	12.3114  6.1861  13.1829 C.ar	1 RES1 0.0
91 H44	12.957  6.7453  12.7669 H	1 RES1 0.0
92 C46	12.703  4.9993  13.7856 C.ar	1 RES1 0.0
93 H45	13.6198  4.7505  13.8022 H	1 RES1 0.0
94 C47	11.7655  4.1965  14.3524 C.ar	1 RES1 0.0
95 H46	12.0235  3.3643  14.7302 H	1 RES1 0.0
96 C48	10.4178  4.5901  14.3804 C.ar	1 RES1 0.0
97 H47	9.7701  4.0312  14.7941 H	1 RES1 0.0
98 C49	7.6029  5.0478  13.6459 C.3	1 RES1 0.0
99 H48	7.6109  4.5142  14.4679 H	1 RES1 0.0
100 H49	7.8863  4.4912  12.8916 H	1 RES1 0.0
101 H50	6.6965  5.3832  13.4831 H	1 RES1 0.0
@<TRIPOS>BOND
1 1 3 1
1 1 4 1
1 1 10 1
1 2 3 1
1 2 7 1
1 2 56 1
1 4 5 1
1 4 6 1
1 4 7 1
1 7 8 1
1 7 9 1
1 10 11 ar
1 10 17 ar
1 11 12 ar
1 11 39 1
1 12 13 1
1 12 14 ar
1 14 15 ar
1 14 35 1
1 15 16 1
1 15 17 ar
1 17 18 1
1 18 19 1
1 18 20 1
1 18 31 1
1 20 21 ar
1 20 29 ar
1 21 22 1
1 21 23 ar
1 23 24 1
1 23 25 ar
1 25 26 1
1 25 27 ar
1 27 28 1
1 27 29 ar
1 29 30 1
1 31 32 1
1 31 33 1
1 31 34 1
1 35 36 1
1 35 37 1
1 35 38 1
1 39 40 1
1 39 41 1
1 39 52 1
1 41 42 ar
1 41 50 ar
1 42 43 1
1 42 44 ar
1 44 45 1
1 44 46 ar
1 46 47 1
1 46 48 ar
1 48 49 1
1 48 50 ar
1 50 51 1
1 52 53 1
1 52 54 1
1 52 55 1
1 56 57 ar
1 56 63 ar
1 57 58 ar
1 57 85 1
1 58 59 1
1 58 60 ar
1 60 61 ar
1 60 81 1
1 61 62 1
1 61 63 ar
1 63 64 1
1 64 65 1
1 64 66 1
1 64 77 1
1 66 67 ar
1 66 75 ar
1 67 68 1
1 67 69 ar
1 69 70 1
1 69 71 ar
1 71 72 1
1 71 73 ar
1 73 74 1
1 73 75 ar
1 75 76 1
1 77 78 1
1 77 79 1
1 77 80 1
1 81 82 1
1 81 83 1
1 81 84 1
1 85 86 1
1 85 87 1
1 85 98 1
1 87 88 ar
1 87 96 ar
1 88 89 1
1 88 90 ar
1 90 91 1
1 90 92 ar
1 92 93 1
1 92 94 ar
1 94 95 1
1 94 96 ar
1 96 97 1
1 98 99 1
1 98 100 1
1 98 101 1
@<TRIPOS>SUBSTRUCTURE
1 RES1 101

