@<TRIPOS>MOLECULE

50	53	1
SMALL
PartialCharges
****
Generated from molSimplify

@<TRIPOS>ATOM
1 O1	-1.7858  9.3146  8.2977 O.3	1 RES1 0.0
2 O2	5.2703  2.7289  4.8284 O.3	1 RES1 0.0
3 O3	7.5125  3.1273  4.5714 O.3	1 RES1 0.0
4 N1	2.9328  5.7819  7.4706 N.pl3	1 RES1 0.0
5 N2	4.8585  5.2664  6.6291 N.pl3	1 RES1 0.0
6 C1	4.1962  5.3278  7.7964 C.3	1 RES1 0.0
7 C2	2.8104  5.9389  6.1115 C.ar	1 RES1 0.0
8 C3	1.7517  6.353  5.3243 C.ar	1 RES1 0.0
9 H1	0.934  6.5891  5.6978 H	1 RES1 0.0
10 C4	1.9575  6.4002  3.9652 C.ar	1 RES1 0.0
11 H2	1.2646  6.6559  3.3994 H	1 RES1 0.0
12 C5	3.2045  6.066  3.4313 C.ar	1 RES1 0.0
13 H3	3.3091  6.108  2.5073 H	1 RES1 0.0
14 C6	4.2786  5.6833  4.1805 C.ar	1 RES1 0.0
15 H4	5.1001  5.4726  3.7996 H	1 RES1 0.0
16 C7	4.0586  5.6291  5.5559 C.ar	1 RES1 0.0
17 C8	1.8564  6.0032  8.4298 C.3	1 RES1 0.0
18 H5	2.1664  5.7472  9.3119 H	1 RES1 0.0
19 H6	1.1103  5.4264  8.2003 H	1 RES1 0.0
20 C9	1.3787  7.4126  8.4769 C.ar	1 RES1 0.0
21 C10	2.2387  8.4721  8.5692 C.ar	1 RES1 0.0
22 H7	3.1552  8.318  8.6097 H	1 RES1 0.0
23 C11	1.7646  9.7616  8.6054 C.ar	1 RES1 0.0
24 H8	2.366  10.4643  8.7003 H	1 RES1 0.0
25 C12	0.4364  10.0343  8.5076 C.ar	1 RES1 0.0
26 H9	0.1306  10.9119  8.5093 H	1 RES1 0.0
27 C13	-0.4423  8.9876  8.4045 C.ar	1 RES1 0.0
28 C14	-2.7257  8.2565  8.162 C.3	1 RES1 0.0
29 H10	-2.6322  7.8563  7.2933 H	1 RES1 0.0
30 H11	-3.6148  8.603  8.2601 H	1 RES1 0.0
31 H12	-2.5627  7.5944  8.8374 H	1 RES1 0.0
32 C15	0.0035  7.6653  8.3647 C.ar	1 RES1 0.0
33 H13	-0.6003  6.9652  8.2662 H	1 RES1 0.0
34 C16	6.2879  4.8708  6.5332 C.3	1 RES1 0.0
35 H14	6.7847  5.3378  7.2238 H	1 RES1 0.0
36 H15	6.6329  5.1649  5.6759 H	1 RES1 0.0
37 C17	6.5443  3.4029  6.6725 C.3	1 RES1 0.0
38 H16	5.8804  3.0323  7.274 H	1 RES1 0.0
39 H17	7.4129  3.2826  7.0878 H	1 RES1 0.0
40 C18	6.5184  2.6132  5.3894 C.3	1 RES1 0.0
41 H18	6.7052  1.6706  5.5812 H	1 RES1 0.0
42 C19	5.222  1.9949  3.6304 C.3	1 RES1 0.0
43 H19	4.3475  2.0979  3.2246 H	1 RES1 0.0
44 H20	5.354  1.0535  3.8243 H	1 RES1 0.0
45 C20	6.2808  2.459  2.6621 C.3	1 RES1 0.0
46 H21	6.2847  1.8929  1.8747 H	1 RES1 0.0
47 H22	6.1032  3.371  2.3848 H	1 RES1 0.0
48 C21	7.5807  2.3804  3.3498 C.3	1 RES1 0.0
49 H23	7.7975  1.455  3.5422 H	1 RES1 0.0
50 H24	8.2772  2.7445  2.7813 H	1 RES1 0.0
@<TRIPOS>BOND
1 1 27 1
1 1 28 1
1 2 40 1
1 2 42 1
1 3 40 1
1 3 48 1
1 4 6 1
1 4 7 1
1 4 17 1
1 5 6 1
1 5 16 1
1 5 34 1
1 7 8 ar
1 7 16 ar
1 8 9 1
1 8 10 ar
1 10 11 1
1 10 12 ar
1 12 13 1
1 12 14 ar
1 14 15 1
1 14 16 ar
1 17 18 1
1 17 19 1
1 17 20 1
1 20 21 ar
1 20 32 ar
1 21 22 1
1 21 23 ar
1 23 24 1
1 23 25 ar
1 25 26 1
1 25 27 ar
1 27 32 ar
1 28 29 1
1 28 30 1
1 28 31 1
1 32 33 1
1 34 35 1
1 34 36 1
1 34 37 1
1 37 38 1
1 37 39 1
1 37 40 1
1 40 41 1
1 42 43 1
1 42 44 1
1 42 45 1
1 45 46 1
1 45 47 1
1 45 48 1
1 48 49 1
1 48 50 1
@<TRIPOS>SUBSTRUCTURE
1 RES1 50

