@<TRIPOS>MOLECULE

36	38	1
SMALL
PartialCharges
****
Generated from molSimplify

@<TRIPOS>ATOM
1 C1	9.9509  5.3426  2.3533 C.3	1 RES1 0.0
2 C2	10.2457  6.8361  0.5858 C.3	1 RES1 0.0
3 H1	11.095  7.0151  0.1128 H	1 RES1 0.0
4 H2	9.6492  7.6207  0.4947 H	1 RES1 0.0
5 C3	9.592  5.5955  0.0767 C.3	1 RES1 0.0
6 H3	8.7168  5.7986  -0.3385 H	1 RES1 0.0
7 H4	10.1658  5.1377  -0.5872 H	1 RES1 0.0
8 C4	11.1539  7.449  2.8754 C.3	1 RES1 0.0
9 H5	11.2169  7.0668  3.7867 H	1 RES1 0.0
10 H6	10.6148  8.2779  2.9318 H	1 RES1 0.0
11 C5	12.5528  7.7997  2.3866 C.ar	1 RES1 0.0
12 C6	12.8961  9.0994  2.4372 C.ar	1 RES1 0.0
13 H7	12.2818  9.7603  2.7308 H	1 RES1 0.0
14 C7	14.133  9.4224  2.0582 C.ar	1 RES1 0.0
15 H8	14.402  10.3326  2.1146 H	1 RES1 0.0
16 C8	15.0247  8.5142  1.5954 C.ar	1 RES1 0.0
17 H9	15.8901  8.7948  1.3235 H	1 RES1 0.0
18 C9	14.6746  7.1831  1.5216 C.ar	1 RES1 0.0
19 H10	15.2861  6.5333  1.1933 H	1 RES1 0.0
20 C10	13.4085  6.8195  1.9382 C.ar	1 RES1 0.0
21 H11	13.1334  5.9112  1.915 H	1 RES1 0.0
22 C11	8.9669  3.2436  1.1803 C.3	1 RES1 0.0
23 H12	9.0632  2.8411  2.0785 H	1 RES1 0.0
24 H13	8.0003  3.2417  0.9662 H	1 RES1 0.0
25 C12	9.6278  2.3408  0.2227 C.ar	1 RES1 0.0
26 C13	11.0809  2.3851  0.0998 C.ar	1 RES1 0.0
27 H14	11.5911  2.963  0.6552 H	1 RES1 0.0
28 C14	11.7249  1.5618  -0.8548 C.ar	1 RES1 0.0
29 H15	12.6692  1.5913  -0.9546 H	1 RES1 0.0
30 C15	10.9587  0.7052  -1.646 C.ar	1 RES1 0.0
31 H16	11.3634  0.1311  -2.2853 H	1 RES1 0.0
32 C16	9.6389  0.7274  -1.4695 C.ar	1 RES1 0.0
33 H17	9.1296  0.1385  -2.0148 H	1 RES1 0.0
34 N1	9.4239  4.7721  1.2931 N.pl3	1 RES1 0.0
35 N2	10.4819  6.504  2.009 N.pl3	1 RES1 0.0
36 N3	8.9256  1.5175  -0.5742 N.ar	1 RES1 0.0
@<TRIPOS>BOND
1 1 34 un
1 1 35 un
1 2 3 1
1 2 4 1
1 2 5 1
1 2 35 1
1 5 6 1
1 5 7 1
1 5 34 1
1 8 9 1
1 8 10 1
1 8 11 1
1 8 35 1
1 11 12 ar
1 11 20 ar
1 12 13 1
1 12 14 ar
1 14 15 1
1 14 16 ar
1 16 17 1
1 16 18 ar
1 18 19 1
1 18 20 ar
1 20 21 1
1 22 23 1
1 22 24 1
1 22 25 1
1 22 34 1
1 25 26 ar
1 25 36 ar
1 26 27 1
1 26 28 ar
1 28 29 1
1 28 30 ar
1 30 31 1
1 30 32 ar
1 32 33 1
1 32 36 ar
@<TRIPOS>SUBSTRUCTURE
1 RES1 36

