@<TRIPOS>MOLECULE

26	27	1
SMALL
PartialCharges
****
Generated from molSimplify

@<TRIPOS>ATOM
1 N1	-0.4067  5.3899  8.6652 N.pl3	1 RES1 0.0
2 N2	-0.1895  4.1737  6.9329 N.pl3	1 RES1 0.0
3 N3	1.3019  1.1955  3.3108 N.1	1 RES1 0.0
4 C1	0.1972  4.2603  8.2197 C.3	1 RES1 0.0
5 C2	-0.9935  5.2462  6.6123 C.2	1 RES1 0.0
6 H1	-1.3614  5.4263  5.7773 H	1 RES1 0.0
7 C3	-1.1459  5.9622  7.6909 C.2	1 RES1 0.0
8 H2	-1.6682  6.7277  7.7735 H	1 RES1 0.0
9 C4	-0.2611  5.876  10.055 C.3	1 RES1 0.0
10 H3	0.6454  5.7409  10.3473 H	1 RES1 0.0
11 H4	-0.8561  5.3897  10.6294 H	1 RES1 0.0
12 H5	-0.4712  6.8112  10.0918 H	1 RES1 0.0
13 C5	0.1604  3.0666  6.0499 C.3	1 RES1 0.0
14 H6	0.8685  2.5478  6.4627 H	1 RES1 0.0
15 H7	0.504  3.4259  5.2174 H	1 RES1 0.0
16 C6	-1.0006  2.1518  5.7456 C.ar	1 RES1 0.0
17 C7	-2.1425  2.1449  6.5151 C.ar	1 RES1 0.0
18 H8	-2.2145  2.7206  7.2421 H	1 RES1 0.0
19 C8	-3.2114  1.2626  6.2038 C.ar	1 RES1 0.0
20 H9	-3.9832  1.2655  6.7223 H	1 RES1 0.0
21 C9	-3.1035  0.4014  5.1323 C.ar	1 RES1 0.0
22 H10	-3.809  -0.1654  4.916 H	1 RES1 0.0
23 C10	-1.9291  0.3862  4.3743 C.ar	1 RES1 0.0
24 H11	-1.8361  -0.2089  3.6654 H	1 RES1 0.0
25 C11	-0.9082  1.2643  4.6856 C.ar	1 RES1 0.0
26 C12	0.3138  1.2119  3.8952 C.1	1 RES1 0.0
@<TRIPOS>BOND
1 1 4 1
1 1 7 1
1 1 9 1
1 2 4 1
1 2 5 1
1 2 13 1
1 3 26 3
1 5 6 1
1 5 7 2
1 7 8 1
1 9 10 1
1 9 11 1
1 9 12 1
1 13 14 1
1 13 15 1
1 13 16 1
1 16 17 ar
1 16 25 ar
1 17 18 1
1 17 19 ar
1 19 20 1
1 19 21 ar
1 21 22 1
1 21 23 ar
1 23 24 1
1 23 25 ar
1 25 26 1
@<TRIPOS>SUBSTRUCTURE
1 RES1 26

