@<TRIPOS>MOLECULE

111	116	1
SMALL
PartialCharges
****
Generated from molSimplify

@<TRIPOS>ATOM
1 C1	-4.0843  7.5062  8.7833 C.3	1 RES1 0.0
2 N1	-2.8612  7.5777  9.393 N.pl3	1 RES1 0.0
3 C2	-2.2064  8.7913  9.7748 C.ar	1 RES1 0.0
4 C3	-2.2945  9.1928  11.102 C.ar	1 RES1 0.0
5 C4	-1.7123  10.3764  11.5169 C.ar	1 RES1 0.0
6 C5	-1.0271  11.1431  10.5643 C.ar	1 RES1 0.0
7 O1	-0.5004  12.3553  10.9445 O.3	1 RES1 0.0
8 C6	-1.4327  13.4195  10.6903 C.3	1 RES1 0.0
9 C7	-0.9411  14.6603  11.3244 C.3	1 RES1 0.0
10 C8	0.36  15.1385  10.7748 C.3	1 RES1 0.0
11 H1	0.6524  15.909  11.2596 H	1 RES1 0.0
12 H2	0.2292  15.3724  9.8588 H	1 RES1 0.0
13 H3	1.0123  14.446  10.834 H	1 RES1 0.0
14 H4	-1.5926  15.3581  11.1694 H	1 RES1 0.0
15 H5	-0.8432  14.5135  12.277 H	1 RES1 0.0
16 H6	-2.2825  13.1934  11.082 H	1 RES1 0.0
17 H7	-1.5172  13.5533  9.7376 H	1 RES1 0.0
18 C9	-0.8559  10.7039  9.2458 C.ar	1 RES1 0.0
19 C10	-1.4795  9.5228  8.8603 C.ar	1 RES1 0.0
20 H8	-1.3942  9.2252  7.9874 H	1 RES1 0.0
21 C11	0.0793  11.4159  8.2819 C.3	1 RES1 0.0
22 C12	1.1631  10.4635  7.809 C.ar	1 RES1 0.0
23 C13	1.1411  9.8905  6.5362 C.ar	1 RES1 0.0
24 C14	2.0414  8.903  6.1873 C.ar	1 RES1 0.0
25 C15	2.9551  8.4365  7.1348 C.ar	1 RES1 0.0
26 C16	3.0141  8.9979  8.4099 C.ar	1 RES1 0.0
27 C17	2.1382  10.0347  8.7064 C.ar	1 RES1 0.0
28 O2	2.186  10.6077  9.9659 O.3	1 RES1 0.0
29 C18	3.0839  11.7329  10.0062 C.3	1 RES1 0.0
30 C19	3.1336  12.2501  11.4118 C.3	1 RES1 0.0
31 C20	4.0905  13.4351  11.5217 C.3	1 RES1 0.0
32 H9	4.1881  13.6871  12.4461 H	1 RES1 0.0
33 H10	3.7555  14.1822  11.0257 H	1 RES1 0.0
34 H11	4.9456  13.2012  11.1609 H	1 RES1 0.0
35 H12	2.2375  12.5229  11.6795 H	1 RES1 0.0
36 H13	3.4433  11.5329  11.998 H	1 RES1 0.0
37 H14	2.7639  12.4268  9.4079 H	1 RES1 0.0
38 H15	3.9739  11.4614  9.7348 H	1 RES1 0.0
39 C21	3.9299  8.4495  9.4922 C.3	1 RES1 0.0
40 C22	3.1155  7.6621  10.5124 C.ar	1 RES1 0.0
41 C23	2.3421  6.5915  10.0978 C.ar	1 RES1 0.0
42 C24	1.5294  5.9068  10.9749 C.ar	1 RES1 0.0
43 C25	1.4635  6.3069  12.3052 C.ar	1 RES1 0.0
44 C26	2.2203  7.3724  12.7745 C.ar	1 RES1 0.0
45 C27	3.0798  8.0221  11.8675 C.ar	1 RES1 0.0
46 O3	3.8362  9.081  12.3092 O.3	1 RES1 0.0
47 C28	5.0608  8.7016  12.9788 C.3	1 RES1 0.0
48 C29	5.6916  9.9646  13.5011 C.3	1 RES1 0.0
49 C30	7.0111  9.7047  14.2302 C.3	1 RES1 0.0
50 H16	7.3868  10.5285  14.5402 H	1 RES1 0.0
51 H17	6.8504  9.1278  14.9771 H	1 RES1 0.0
52 H18	7.6227  9.2759  13.6299 H	1 RES1 0.0
53 H19	5.0676  10.3959  14.1034 H	1 RES1 0.0
54 H20	5.8741  10.5389  12.7505 H	1 RES1 0.0
55 H21	4.8719  8.1039  13.706 H	1 RES1 0.0
56 H22	5.6563  8.265  12.3588 H	1 RES1 0.0
57 C31	2.0541  7.8376  14.2161 C.3	1 RES1 0.0
58 C32	0.6174  8.2378  14.4686 C.ar	1 RES1 0.0
59 C33	0.102  9.4214  13.923 C.ar	1 RES1 0.0
60 O4	0.9816  10.3375  13.3774 O.3	1 RES1 0.0
61 C34	1.6503  11.1054  14.419 C.3	1 RES1 0.0
62 C35	0.8275  12.2787  14.8587 C.3	1 RES1 0.0
63 C36	1.5378  13.0232  16.0199 C.3	1 RES1 0.0
64 H23	1.0245  13.7911  16.282 H	1 RES1 0.0
65 H24	1.6472  12.4294  16.7752 H	1 RES1 0.0
66 H25	2.4005  13.3025  15.7014 H	1 RES1 0.0
67 H26	-0.0409  11.9668  15.149 H	1 RES1 0.0
68 H27	0.7177  12.8803  14.1062 H	1 RES1 0.0
69 H28	1.8193  10.5324  15.1885 H	1 RES1 0.0
70 H29	2.4899  11.4302  14.0639 H	1 RES1 0.0
71 C37	-1.2718  9.6696  13.8531 C.ar	1 RES1 0.0
72 C38	-1.8014  10.7844  12.9822 C.3	1 RES1 0.0
73 H30	-1.3041  11.603  13.131 H	1 RES1 0.0
74 H31	-2.7266  10.9326  13.2071 H	1 RES1 0.0
75 C39	-2.1295  8.7744  14.5058 C.ar	1 RES1 0.0
76 C40	-1.6327  7.6725  15.1617 C.ar	1 RES1 0.0
77 C41	-0.2707  7.3906  15.1287 C.ar	1 RES1 0.0
78 H32	0.0569  6.6292  15.5492 H	1 RES1 0.0
79 H33	-2.2098  7.1112  15.6225 H	1 RES1 0.0
80 H34	-3.0404  8.9316  14.4923 H	1 RES1 0.0
81 H35	2.6245  8.5964  14.3683 H	1 RES1 0.0
82 H36	2.2933  7.119  14.8193 H	1 RES1 0.0
83 H37	0.9002  5.8561  12.8943 H	1 RES1 0.0
84 H38	1.0262  5.183  10.679 H	1 RES1 0.0
85 H39	2.3785  6.3303  9.2106 H	1 RES1 0.0
86 H40	4.3871  9.1772  9.9237 H	1 RES1 0.0
87 H41	4.5651  7.8583  9.0866 H	1 RES1 0.0
88 H42	3.5386  7.744  6.9164 H	1 RES1 0.0
89 H43	2.04  8.547  5.3325 H	1 RES1 0.0
90 H44	0.5069  10.179  5.9187 H	1 RES1 0.0
91 H45	0.479  12.1669  8.723 H	1 RES1 0.0
92 H46	-0.4142  11.7213  7.5111 H	1 RES1 0.0
93 H47	-2.7434  8.6665  11.7246 H	1 RES1 0.0
94 C42	-2.4134  6.3147  9.7238 C.2	1 RES1 0.0
95 C43	-3.3604  5.4403  9.3185 C.2	1 RES1 0.0
96 N2	-4.3774  6.2043  8.7363 N.pl3	1 RES1 0.0
97 C44	-5.6363  5.6716  8.2146 C.3	1 RES1 0.0
98 C45	-6.7638  5.6105  9.298 C.3	1 RES1 0.0
99 C46	-6.6592  4.4944  10.2703 C.3	1 RES1 0.0
100 C47	-7.8961  4.3904  11.1412 C.3	1 RES1 0.0
101 H48	-7.7834  3.6732  11.7613 H	1 RES1 0.0
102 H49	-8.0393  5.2025  11.626 H	1 RES1 0.0
103 H50	-8.661  4.2098  10.6029 H	1 RES1 0.0
104 H51	-5.8737  4.6412  10.8256 H	1 RES1 0.0
105 H52	-6.5349  3.6745  9.7574 H	1 RES1 0.0
106 H53	-6.7262  6.4343  9.8194 H	1 RES1 0.0
107 H54	-7.6285  5.5403  8.8668 H	1 RES1 0.0
108 H55	-5.9319  6.2459  7.5026 H	1 RES1 0.0
109 H56	-5.4644  4.7867  7.8859 H	1 RES1 0.0
110 H57	-3.3515  4.5152  9.4023 H	1 RES1 0.0
111 H58	-1.5972  6.1224  10.1379 H	1 RES1 0.0
@<TRIPOS>BOND
1 1 2 1
1 1 96 1
1 2 3 1
1 2 94 1
1 3 4 ar
1 3 19 ar
1 4 5 ar
1 4 93 1
1 5 6 ar
1 5 72 1
1 6 7 1
1 6 18 ar
1 7 8 1
1 8 9 1
1 8 16 1
1 8 17 1
1 9 10 1
1 9 14 1
1 9 15 1
1 10 11 1
1 10 12 1
1 10 13 1
1 18 19 ar
1 18 21 1
1 19 20 1
1 21 22 1
1 21 91 1
1 21 92 1
1 22 23 ar
1 22 27 ar
1 23 24 ar
1 23 90 1
1 24 25 ar
1 24 89 1
1 25 26 ar
1 25 88 1
1 26 27 ar
1 26 39 1
1 27 28 1
1 28 29 1
1 29 30 1
1 29 37 1
1 29 38 1
1 30 31 1
1 30 35 1
1 30 36 1
1 31 32 1
1 31 33 1
1 31 34 1
1 39 40 1
1 39 86 1
1 39 87 1
1 40 41 ar
1 40 45 ar
1 41 42 ar
1 41 85 1
1 42 43 ar
1 42 84 1
1 43 44 ar
1 43 83 1
1 44 45 ar
1 44 57 1
1 45 46 1
1 46 47 1
1 47 48 1
1 47 55 1
1 47 56 1
1 48 49 1
1 48 53 1
1 48 54 1
1 49 50 1
1 49 51 1
1 49 52 1
1 57 58 1
1 57 81 1
1 57 82 1
1 58 59 ar
1 58 77 ar
1 59 60 1
1 59 71 ar
1 60 61 1
1 61 62 1
1 61 69 1
1 61 70 1
1 62 63 1
1 62 67 1
1 62 68 1
1 63 64 1
1 63 65 1
1 63 66 1
1 71 72 1
1 71 75 ar
1 72 73 1
1 72 74 1
1 75 76 ar
1 75 80 1
1 76 77 ar
1 76 79 1
1 77 78 1
1 94 95 2
1 94 111 1
1 95 96 1
1 95 110 1
1 96 97 1
1 97 98 1
1 97 108 1
1 97 109 1
1 98 99 1
1 98 106 1
1 98 107 1
1 99 100 1
1 99 104 1
1 99 105 1
1 100 101 1
1 100 102 1
1 100 103 1
@<TRIPOS>SUBSTRUCTURE
1 RES1 111

