@<TRIPOS>MOLECULE

144	154	1
SMALL
PartialCharges
****
Generated from molSimplify

@<TRIPOS>ATOM
1 N1	-1.712  4.8462  3.4894 N.pl3	1 RES1 0.0
2 N2	-1.1176  6.2518  1.9882 N.pl3	1 RES1 0.0
3 O1	-2.6603  2.4561  2.5591 O.3	1 RES1 0.0
4 O2	-4.729  1.3581  2.3018 O.3	1 RES1 0.0
5 O3	-8.5272  0.2996  4.9016 O.3	1 RES1 0.0
6 O4	-9.242  0.8932  7.0655 O.3	1 RES1 0.0
7 O5	-7.43  3.6315  10.5038 O.3	1 RES1 0.0
8 O6	-5.4486  4.8611  10.8707 O.3	1 RES1 0.0
9 O7	-1.5593  5.7186  8.2725 O.3	1 RES1 0.0
10 O8	-0.8656  5.0729  6.097 O.3	1 RES1 0.0
11 C1	-1.7521  3.7301  4.3567 C.ar	1 RES1 0.0
12 C2	-1.3321  3.8508  5.6822 C.ar	1 RES1 0.0
13 C3	-1.352  2.756  6.5229 C.ar	1 RES1 0.0
14 C4	-1.8144  1.5497  6.0069 C.ar	1 RES1 0.0
15 H1	-1.8282  0.7915  6.5785 H	1 RES1 0.0
16 C5	-2.2617  1.3958  4.6903 C.ar	1 RES1 0.0
17 C6	-2.2242  2.5209  3.8919 C.ar	1 RES1 0.0
18 C7	-4.0509  2.5973  2.3774 C.3	1 RES1 0.0
19 H2	-4.2159  3.1067  1.5457 H	1 RES1 0.0
20 H3	-4.4205  3.1208  3.1313 H	1 RES1 0.0
21 C8	-2.8897  0.1138  4.1366 C.3	1 RES1 0.0
22 H4	-2.7574  0.1352  3.1447 H	1 RES1 0.0
23 C9	-6.5948  0.8806  3.6762 C.ar	1 RES1 0.0
24 H5	-7.1499  1.3111  3.0379 H	1 RES1 0.0
25 C10	-5.2131  0.8253  3.4916 C.ar	1 RES1 0.0
26 C11	-4.3842  0.1603  4.379 C.ar	1 RES1 0.0
27 C12	-4.9717  -0.3835  5.5154 C.ar	1 RES1 0.0
28 H6	-4.4147  -0.8057  6.1581 H	1 RES1 0.0
29 C13	-6.3608  -0.3313  5.7534 C.ar	1 RES1 0.0
30 C14	-7.1419  0.2983  4.8038 C.ar	1 RES1 0.0
31 C15	-9.0942  1.2981  5.7289 C.3	1 RES1 0.0
32 H7	-8.519  2.1034  5.7 H	1 RES1 0.0
33 H8	-9.9816  1.5478  5.3709 H	1 RES1 0.0
34 C16	-6.9871  -0.8884  7.0322 C.3	1 RES1 0.0
35 H9	-7.9203  -1.1655  6.8031 H	1 RES1 0.0
36 C17	-8.2481  2.2796  8.7357 C.ar	1 RES1 0.0
37 H10	-8.9935  2.8645  8.6712 H	1 RES1 0.0
38 C18	-8.1704  1.1751  7.9173 C.ar	1 RES1 0.0
39 C19	-7.0929  0.2929  7.9974 C.ar	1 RES1 0.0
40 C20	-6.1132  0.5864  8.947 C.ar	1 RES1 0.0
41 H11	-5.3657  0.0041  9.0204 H	1 RES1 0.0
42 C21	-6.1766  1.6831  9.7854 C.ar	1 RES1 0.0
43 C22	-7.253  2.5429  9.652 C.ar	1 RES1 0.0
44 C23	-6.6786  4.7904  10.2035 C.3	1 RES1 0.0
45 H12	-6.5135  4.8187  9.2272 H	1 RES1 0.0
46 H13	-7.2148  5.5883  10.4393 H	1 RES1 0.0
47 C24	-5.0911  1.9983  10.7751 C.3	1 RES1 0.0
48 H14	-5.5232  2.4784  11.5379 H	1 RES1 0.0
49 C25	-3.509  5.2384  9.5497 C.ar	1 RES1 0.0
50 H15	-3.6924  6.1693  9.5875 H	1 RES1 0.0
51 C26	-4.3375  4.3331  10.1813 C.ar	1 RES1 0.0
52 C27	-4.1116  2.9797  10.1279 C.ar	1 RES1 0.0
53 C28	-3.0007  2.5595  9.4163 C.ar	1 RES1 0.0
54 H16	-2.8289  1.6264  9.3651 H	1 RES1 0.0
55 C29	-2.1307  3.4101  8.7824 C.ar	1 RES1 0.0
56 C30	-2.4028  4.7641  8.8603 C.ar	1 RES1 0.0
57 C31	-1.729  5.8903  6.8809 C.3	1 RES1 0.0
58 H17	-1.5634  6.8402  6.6541 H	1 RES1 0.0
59 H18	-2.667  5.6831  6.6452 H	1 RES1 0.0
60 C32	-0.9428  2.9161  7.9685 C.3	1 RES1 0.0
61 H19	-0.2595  3.6455  7.9929 H	1 RES1 0.0
62 C33	-2.2454  -1.1644  4.637 C.3	1 RES1 0.0
63 H20	-2.0903  -1.1121  5.6133 H	1 RES1 0.0
64 H21	-2.8328  -1.9394  4.4524 H	1 RES1 0.0
65 C34	-0.9097  -1.3167  3.8897 C.3	1 RES1 0.0
66 H22	-1.1884  -1.4923  2.9579 H	1 RES1 0.0
67 H23	-0.5588  -2.1794  4.2233 H	1 RES1 0.0
68 C35	0.2473  -0.5306  3.7429 C.3	1 RES1 0.0
69 H24	0.4666  -0.0827  4.5969 H	1 RES1 0.0
70 H25	0.1004  0.1649  3.0535 H	1 RES1 0.0
71 C36	1.4065  -1.4624  3.3181 C.3	1 RES1 0.0
72 H26	1.1166  -1.9157  2.4864 H	1 RES1 0.0
73 H27	2.1655  -0.8765  3.0691 H	1 RES1 0.0
74 C37	1.9646  -2.5354  4.2277 C.3	1 RES1 0.0
75 H28	2.9078  -2.6922  4.0076 H	1 RES1 0.0
76 H29	1.4591  -3.3656  4.1032 H	1 RES1 0.0
77 H30	1.8911  -2.2447  5.1596 H	1 RES1 0.0
78 C38	-6.2884  -2.106  7.6171 C.3	1 RES1 0.0
79 H31	-5.3313  -1.8916  7.7483 H	1 RES1 0.0
80 H32	-6.6765  -2.2959  8.5089 H	1 RES1 0.0
81 C39	-6.3917  -3.3431  6.7764 C.3	1 RES1 0.0
82 H33	-5.8958  -3.204  5.9313 H	1 RES1 0.0
83 H34	-7.3414  -3.5041  6.5496 H	1 RES1 0.0
84 C40	-5.8272  -4.5821  7.497 C.3	1 RES1 0.0
85 H35	-4.8674  -4.4302  7.686 H	1 RES1 0.0
86 H36	-6.2926  -4.6857  8.3643 H	1 RES1 0.0
87 C41	-5.9692  -5.8541  6.7186 C.3	1 RES1 0.0
88 H37	-5.3771  -5.814  5.9269 H	1 RES1 0.0
89 H38	-6.9015  -5.9324  6.3961 H	1 RES1 0.0
90 C42	-5.6206  -7.0917  7.537 C.3	1 RES1 0.0
91 H39	-5.7334  -7.893  6.9832 H	1 RES1 0.0
92 H40	-6.2152  -7.148  8.3154 H	1 RES1 0.0
93 H41	-4.6906  -7.0329  7.8417 H	1 RES1 0.0
94 C43	-4.3931  0.7679  11.36 C.3	1 RES1 0.0
95 H42	-3.8905  0.3105  10.6394 H	1 RES1 0.0
96 H43	-5.0789  0.1375  11.6958 H	1 RES1 0.0
97 C44	-3.4409  1.1074  12.4875 C.3	1 RES1 0.0
98 H44	-2.8332  1.8293  12.1851 H	1 RES1 0.0
99 H45	-3.963  1.4543  13.2526 H	1 RES1 0.0
100 C45	-2.6061  -0.0683  12.9568 C.3	1 RES1 0.0
101 H46	-2.0496  -0.3901  12.2051 H	1 RES1 0.0
102 H47	-3.2113  -0.8061  13.2237 H	1 RES1 0.0
103 C46	-1.7151  0.2725  14.1133 C.3	1 RES1 0.0
104 H48	-2.2705  0.4963  14.9005 H	1 RES1 0.0
105 H49	-1.1731  1.0693  13.8842 H	1 RES1 0.0
106 C47	-0.7805  -0.8907  14.4669 C.3	1 RES1 0.0
107 H50	-0.2114  -0.636  15.223 H	1 RES1 0.0
108 H51	-0.217  -1.1048  13.6929 H	1 RES1 0.0
109 H52	-1.3136  -1.6765  14.7093 H	1 RES1 0.0
110 C48	-0.2766  1.6793  8.5734 C.3	1 RES1 0.0
111 H53	0.4595  1.3911  7.9773 H	1 RES1 0.0
112 H54	-0.9406  0.945  8.6067 H	1 RES1 0.0
113 C49	0.285  1.9042  9.9834 C.3	1 RES1 0.0
114 H55	0.8985  2.6815  9.9633 H	1 RES1 0.0
115 H56	-0.462  2.1252  10.595 H	1 RES1 0.0
116 C50	1.0269  0.7168  10.5327 C.3	1 RES1 0.0
117 H57	1.7027  0.4282  9.8699 H	1 RES1 0.0
118 H58	0.3871  -0.0291  10.655 H	1 RES1 0.0
119 C51	1.7142  0.9868  11.8404 C.3	1 RES1 0.0
120 H59	1.0342  1.2325  12.5187 H	1 RES1 0.0
121 H60	2.3248  1.7578  11.7314 H	1 RES1 0.0
122 C52	2.5213  -0.2314  12.3519 C.3	1 RES1 0.0
123 H61	2.9402  -0.0092  13.2103 H	1 RES1 0.0
124 H62	3.2157  -0.4601  11.7003 H	1 RES1 0.0
125 H63	1.9196  -0.9946  12.4697 H	1 RES1 0.0
126 C53	-0.8007  5.0556  2.5264 C.3	1 RES1 0.0
127 C54	-2.6033  5.9305  3.5472 C.2	1 RES1 0.0
128 H64	-3.3425  6.0253  4.1366 H	1 RES1 0.0
129 C55	-2.2162  6.7934  2.6221 C.2	1 RES1 0.0
130 H65	-2.6214  7.6313  2.4308 H	1 RES1 0.0
131 C56	-0.3542  6.9684  0.9585 C.3	1 RES1 0.0
132 H66	-0.9789  7.3548  0.2958 H	1 RES1 0.0
133 H67	0.2391  6.3315  0.487 H	1 RES1 0.0
134 C57	0.4819  8.0777  1.5723 C.ar	1 RES1 0.0
135 C58	0.168  9.3883  1.3833 C.ar	1 RES1 0.0
136 H68	-0.5794  9.617  0.8429 H	1 RES1 0.0
137 C59	0.9189  10.3913  1.9593 C.ar	1 RES1 0.0
138 H69	0.6797  11.3002  1.8214 H	1 RES1 0.0
139 C60	1.9958  10.0836  2.7244 C.ar	1 RES1 0.0
140 H70	2.5204  10.7767  3.1069 H	1 RES1 0.0
141 C61	2.3296  8.7673  2.9467 C.ar	1 RES1 0.0
142 H71	3.0715  8.55  3.4983 H	1 RES1 0.0
143 C62	1.5846  7.7594  2.3596 C.ar	1 RES1 0.0
144 H72	1.8238  6.8504  2.4975 H	1 RES1 0.0
@<TRIPOS>BOND
1 1 11 1
1 1 126 1
1 1 127 1
1 2 126 1
1 2 129 1
1 2 131 1
1 3 17 1
1 3 18 1
1 4 18 1
1 4 25 1
1 5 30 1
1 5 31 1
1 6 31 1
1 6 38 1
1 7 43 1
1 7 44 1
1 8 44 1
1 8 51 1
1 9 56 1
1 9 57 1
1 10 12 1
1 10 57 1
1 11 12 ar
1 11 17 ar
1 12 13 ar
1 13 14 ar
1 13 60 1
1 14 15 1
1 14 16 ar
1 16 17 ar
1 16 21 1
1 18 19 1
1 18 20 1
1 21 22 1
1 21 26 1
1 21 62 1
1 23 24 1
1 23 25 ar
1 23 30 ar
1 25 26 ar
1 26 27 ar
1 27 28 1
1 27 29 ar
1 29 30 ar
1 29 34 1
1 31 32 1
1 31 33 1
1 34 35 1
1 34 39 1
1 34 78 1
1 36 37 1
1 36 38 ar
1 36 43 ar
1 38 39 ar
1 39 40 ar
1 40 41 1
1 40 42 ar
1 42 43 ar
1 42 47 1
1 44 45 1
1 44 46 1
1 47 48 1
1 47 52 1
1 47 94 1
1 49 50 1
1 49 51 ar
1 49 56 ar
1 51 52 ar
1 52 53 ar
1 53 54 1
1 53 55 ar
1 55 56 ar
1 55 60 1
1 57 58 1
1 57 59 1
1 60 61 1
1 60 110 1
1 62 63 1
1 62 64 1
1 62 65 1
1 65 66 1
1 65 67 1
1 65 68 1
1 68 69 1
1 68 70 1
1 68 71 1
1 71 72 1
1 71 73 1
1 71 74 1
1 74 75 1
1 74 76 1
1 74 77 1
1 78 79 1
1 78 80 1
1 78 81 1
1 81 82 1
1 81 83 1
1 81 84 1
1 84 85 1
1 84 86 1
1 84 87 1
1 87 88 1
1 87 89 1
1 87 90 1
1 90 91 1
1 90 92 1
1 90 93 1
1 94 95 1
1 94 96 1
1 94 97 1
1 97 98 1
1 97 99 1
1 97 100 1
1 100 101 1
1 100 102 1
1 100 103 1
1 103 104 1
1 103 105 1
1 103 106 1
1 106 107 1
1 106 108 1
1 106 109 1
1 110 111 1
1 110 112 1
1 110 113 1
1 113 114 1
1 113 115 1
1 113 116 1
1 116 117 1
1 116 118 1
1 116 119 1
1 119 120 1
1 119 121 1
1 119 122 1
1 122 123 1
1 122 124 1
1 122 125 1
1 127 128 1
1 127 129 2
1 129 130 1
1 131 132 1
1 131 133 1
1 131 134 1
1 134 135 ar
1 134 143 ar
1 135 136 1
1 135 137 ar
1 137 138 1
1 137 139 ar
1 139 140 1
1 139 141 ar
1 141 142 1
1 141 143 ar
1 143 144 1
@<TRIPOS>SUBSTRUCTURE
1 RES1 144

