@<TRIPOS>MOLECULE

56	58	1
SMALL
PartialCharges
****
Generated from molSimplify

@<TRIPOS>ATOM
1 S1	2.1453  2.3775  2.4822 S.3	1 RES1 0.0
2 N1	0.346  6.9262  6.1336 N.pl3	1 RES1 0.0
3 N2	1.4439  5.7545  4.6658 N.pl3	1 RES1 0.0
4 C1	0.204  6.1301  5.0543 C.3	1 RES1 0.0
5 C2	1.7074  7.0886  6.4345 C.ar	1 RES1 0.0
6 C3	2.3617  7.8523  7.3962 C.ar	1 RES1 0.0
7 H1	1.8864  8.3683  8.0067 H	1 RES1 0.0
8 C4	3.7518  7.8165  7.4118 C.ar	1 RES1 0.0
9 C5	4.481  8.6577  8.4707 C.3	1 RES1 0.0
10 H2	4.9089  8.0756  9.1026 H	1 RES1 0.0
11 H3	3.8468  9.2153  8.9276 H	1 RES1 0.0
12 H4	5.1414  9.2078  8.0435 H	1 RES1 0.0
13 C6	4.4663  7.0317  6.4741 C.ar	1 RES1 0.0
14 C7	5.9917  6.9514  6.5185 C.3	1 RES1 0.0
15 H5	6.3595  7.8376  6.5219 H	1 RES1 0.0
16 H6	6.31  6.4752  5.748 H	1 RES1 0.0
17 H7	6.265  6.4886  7.315 H	1 RES1 0.0
18 C8	3.7936  6.2863  5.5136 C.ar	1 RES1 0.0
19 H8	4.2539  5.7677  4.8947 H	1 RES1 0.0
20 C9	2.3992  6.3465  5.5136 C.ar	1 RES1 0.0
21 C10	-0.766  7.5587  6.859 C.3	1 RES1 0.0
22 H9	-1.558  7.5304  6.2998 H	1 RES1 0.0
23 H10	-0.5472  8.4917  7.0108 H	1 RES1 0.0
24 C11	-1.0817  6.9265  8.1625 C.3	1 RES1 0.0
25 H11	-0.2929  6.9111  8.728 H	1 RES1 0.0
26 H12	-1.3819  6.0135  8.029 H	1 RES1 0.0
27 C12	-2.2424  7.801  8.8484 C.3	1 RES1 0.0
28 H13	-2.1475  8.7186  8.5484 H	1 RES1 0.0
29 H14	-3.0972  7.4775  8.5235 H	1 RES1 0.0
30 C13	-2.276  7.8004  10.177 C.3	1 RES1 0.0
31 H15	-1.4384  8.1624  10.505 H	1 RES1 0.0
32 H16	-2.3359  6.8816  10.4815 H	1 RES1 0.0
33 C14	-3.4436  8.606  10.8162 C.3	1 RES1 0.0
34 H17	-4.264  8.1379  10.5975 H	1 RES1 0.0
35 H18	-3.3349  8.5469  11.778 H	1 RES1 0.0
36 C15	-3.6607  10.0332  10.4924 C.3	1 RES1 0.0
37 H19	-2.8624  10.5299  10.6877 H	1 RES1 0.0
38 H20	-4.3865  10.3733  11.0195 H	1 RES1 0.0
39 H21	-3.872  10.1208  9.5603 H	1 RES1 0.0
40 C16	1.7333  4.8862  3.5266 C.3	1 RES1 0.0
41 H22	2.5465  5.1916  3.0954 H	1 RES1 0.0
42 H23	1.0109  4.9599  2.8827 H	1 RES1 0.0
43 C17	1.8976  3.4305  3.92 C.3	1 RES1 0.0
44 H24	1.1081  3.1373  4.3997 H	1 RES1 0.0
45 H25	2.659  3.3444  4.5147 H	1 RES1 0.0
46 C18	0.5225  2.2311  1.7963 C.ar	1 RES1 0.0
47 C19	0.3942  2.019  0.4617 C.ar	1 RES1 0.0
48 H26	1.1513  1.9948  -0.0776 H	1 RES1 0.0
49 C20	-0.8691  1.8372  -0.1055 C.ar	1 RES1 0.0
50 H27	-0.937  1.6997  -1.0234 H	1 RES1 0.0
51 C21	-1.9585  1.854  0.6164 C.ar	1 RES1 0.0
52 H28	-2.7924  1.7545  0.2168 H	1 RES1 0.0
53 C22	-1.8589  2.0124  1.8946 C.ar	1 RES1 0.0
54 H29	-2.6274  1.9879  2.4176 H	1 RES1 0.0
55 C23	-0.6223  2.2193  2.5086 C.ar	1 RES1 0.0
56 H30	-0.5877  2.3504  3.4289 H	1 RES1 0.0
@<TRIPOS>BOND
1 1 43 1
1 1 46 1
1 2 4 1
1 2 5 1
1 2 21 1
1 3 4 1
1 3 20 1
1 3 40 1
1 5 6 ar
1 5 20 ar
1 6 7 1
1 6 8 ar
1 8 9 1
1 8 13 ar
1 9 10 1
1 9 11 1
1 9 12 1
1 13 14 1
1 13 18 ar
1 14 15 1
1 14 16 1
1 14 17 1
1 18 19 1
1 18 20 ar
1 21 22 1
1 21 23 1
1 21 24 1
1 24 25 1
1 24 26 1
1 24 27 1
1 27 28 1
1 27 29 1
1 27 30 1
1 30 31 1
1 30 32 1
1 30 33 1
1 33 34 1
1 33 35 1
1 33 36 1
1 36 37 1
1 36 38 1
1 36 39 1
1 40 41 1
1 40 42 1
1 40 43 1
1 43 44 1
1 43 45 1
1 46 47 ar
1 46 55 ar
1 47 48 1
1 47 49 ar
1 49 50 1
1 49 51 ar
1 51 52 1
1 51 53 ar
1 53 54 1
1 53 55 ar
1 55 56 1
@<TRIPOS>SUBSTRUCTURE
1 RES1 56

