@<TRIPOS>MOLECULE

38	39	1
SMALL
PartialCharges
****
Generated from molSimplify

@<TRIPOS>ATOM
1 S1	8.3272  1.0483  -1.2446 S.o2	1 RES1 0.0
2 O1	9.1324  0.0157  -1.8296 O.2	1 RES1 0.0
3 O2	7.346  0.7445  -0.2525 O.2	1 RES1 0.0
4 N1	8.8272  2.2446  2.0949 N.pl3	1 RES1 0.0
5 H1	9.1297  1.5513  1.7191 H	1 RES1 0.0
6 N2	8.8835  3.2119  0.0333 N.pl3	1 RES1 0.0
7 H2	8.9021  3.8863  -0.4687 H	1 RES1 0.0
8 N3	9.4338  2.0445  -0.5204 N.pl3	1 RES1 0.0
9 H3	10.1229  2.1969  -0.9855 H	1 RES1 0.0
10 C1	8.6555  3.3014  1.3572 C.2	1 RES1 0.0
11 C2	8.5151  2.0972  3.5171 C.3	1 RES1 0.0
12 H4	7.8725  2.8157  3.7827 H	1 RES1 0.0
13 C3	9.7753  2.2221  4.3689 C.3	1 RES1 0.0
14 H5	10.4685  1.6039  4.0265 H	1 RES1 0.0
15 H6	10.128  3.1445  4.3042 H	1 RES1 0.0
16 C4	9.4761  1.8926  5.8288 C.3	1 RES1 0.0
17 H7	10.3149  1.9325  6.3538 H	1 RES1 0.0
18 H8	8.8524  2.5684  6.1968 H	1 RES1 0.0
19 C5	8.8613  0.5132  5.9674 C.3	1 RES1 0.0
20 H9	8.6666  0.3322  6.921 H	1 RES1 0.0
21 H10	9.5038  -0.1692  5.6495 H	1 RES1 0.0
22 C6	7.576  0.4172  5.1585 C.3	1 RES1 0.0
23 H11	6.9079  1.0507  5.5229 H	1 RES1 0.0
24 H12	7.2048  -0.4978  5.2358 H	1 RES1 0.0
25 C7	7.8384  0.7391  3.6927 C.3	1 RES1 0.0
26 H13	6.9792  0.7366  3.2003 H	1 RES1 0.0
27 H14	8.4144  0.0351  3.3023 H	1 RES1 0.0
28 C8	7.5348  1.9189  -2.5559 C.ar	1 RES1 0.0
29 C9	6.1881  2.2521  -2.4452 C.ar	1 RES1 0.0
30 H15	5.7081  2.0698  -1.6465 H	1 RES1 0.0
31 C10	5.5611  2.8568  -3.5275 C.ar	1 RES1 0.0
32 H16	4.6403  3.0851  -3.4734 H	1 RES1 0.0
33 C11	6.2706  3.1257  -4.6806 C.ar	1 RES1 0.0
34 H17	5.8318  3.5316  -5.4186 H	1 RES1 0.0
35 C12	7.6214  2.8086  -4.7728 C.ar	1 RES1 0.0
36 H18	8.1044  3.0097  -5.5651 H	1 RES1 0.0
37 C13	8.2603  2.1997  -3.7077 C.ar	1 RES1 0.0
38 H19	9.1825  1.976  -3.7628 H	1 RES1 0.0
@<TRIPOS>BOND
1 1 2 2
1 1 3 2
1 1 8 1
1 1 28 1
1 4 5 1
1 4 10 1
1 4 11 1
1 6 7 1
1 6 8 1
1 6 10 1
1 8 9 1
1 11 12 1
1 11 13 1
1 11 25 1
1 13 14 1
1 13 15 1
1 13 16 1
1 16 17 1
1 16 18 1
1 16 19 1
1 19 20 1
1 19 21 1
1 19 22 1
1 22 23 1
1 22 24 1
1 22 25 1
1 25 26 1
1 25 27 1
1 28 29 ar
1 28 37 ar
1 29 30 1
1 29 31 ar
1 31 32 1
1 31 33 ar
1 33 34 1
1 33 35 ar
1 35 36 1
1 35 37 ar
1 37 38 1
@<TRIPOS>SUBSTRUCTURE
1 RES1 38

