@<TRIPOS>MOLECULE

74	77	1
SMALL
PartialCharges
****
Generated from molSimplify

@<TRIPOS>ATOM
1 N1	4.8262  5.1212  6.1653 N.pl3	1 RES1 0.0
2 C1	4.4421  5.1653  4.8561 C.3	1 RES1 0.0
3 N2	3.2908  4.5068  4.8375 N.pl3	1 RES1 0.0
4 N3	2.8835  4.027  6.0776 N.2	1 RES1 0.0
5 C2	3.861  4.4195  6.8716 C.2	1 RES1 0.0
6 C3	5.9425  5.8179  6.7523 C.ar	1 RES1 0.0
7 C4	5.7045  7.0636  7.3321 C.ar	1 RES1 0.0
8 C5	6.7942  7.7455  7.8712 C.ar	1 RES1 0.0
9 H1	6.6599  8.5755  8.2643 H	1 RES1 0.0
10 C6	8.079  7.2115  7.8332 C.ar	1 RES1 0.0
11 C7	8.2653  5.9417  7.2874 C.ar	1 RES1 0.0
12 H2	9.1481  5.5605  7.2779 H	1 RES1 0.0
13 C8	7.2014  5.2083  6.7535 C.ar	1 RES1 0.0
14 C9	4.3245  7.6608  7.4114 C.3	1 RES1 0.0
15 H3	4.3902  8.5755  7.6256 H	1 RES1 0.0
16 H4	3.8274  7.2179  8.0781 H	1 RES1 0.0
17 H5	3.8911  7.5629  6.58 H	1 RES1 0.0
18 C10	9.2382  8.0004  8.389 C.3	1 RES1 0.0
19 H6	9.9368  7.4574  8.5099 H	1 RES1 0.0
20 H7	9.0046  8.3624  9.1706 H	1 RES1 0.0
21 H8	9.46  8.6471  7.816 H	1 RES1 0.0
22 C11	7.3974  3.8197  6.2155 C.3	1 RES1 0.0
23 H9	8.2746  3.5429  6.3786 H	1 RES1 0.0
24 H10	7.2366  3.8169  5.2957 H	1 RES1 0.0
25 H11	6.8038  3.2356  6.6379 H	1 RES1 0.0
26 C12	2.4406  4.2485  3.6925 C.3	1 RES1 0.0
27 H12	2.1761  3.3506  3.7098 H	1 RES1 0.0
28 H13	2.9376  4.3831  2.912 H	1 RES1 0.0
29 C13	1.1909  5.1295  3.6384 C.2	1 RES1 0.0
30 O1	0.1194  4.6237  3.31 O.2	1 RES1 0.0
31 N4	1.3691  6.4248  3.9465 N.am	1 RES1 0.0
32 H14	2.11  6.6862  4.0459 H	1 RES1 0.0
33 C14	0.3192  7.3812  4.1477 C.ar	1 RES1 0.0
34 C15	-0.5986  7.1945  5.1874 C.ar	1 RES1 0.0
35 C16	-1.5196  8.2063  5.4404 C.ar	1 RES1 0.0
36 H15	-2.1653  8.0841  6.151 H	1 RES1 0.0
37 C17	-1.5447  9.3859  4.7071 C.ar	1 RES1 0.0
38 C18	-0.6349  9.5311  3.6677 C.ar	1 RES1 0.0
39 H16	-0.6472  10.2838  3.1796 H	1 RES1 0.0
40 C19	0.2974  8.5395  3.3612 C.ar	1 RES1 0.0
41 C20	-0.6053  5.9489  6.0271 C.3	1 RES1 0.0
42 H17	-1.1085  6.0979  6.8021 H	1 RES1 0.0
43 H18	0.2726  5.7264  6.2627 H	1 RES1 0.0
44 H19	-0.9835  5.2456  5.5399 H	1 RES1 0.0
45 C21	-2.5428  10.4703  5.0209 C.3	1 RES1 0.0
46 H20	-2.1474  11.2944  4.9067 H	1 RES1 0.0
47 H21	-2.8263  10.3837  5.8944 H	1 RES1 0.0
48 H22	-3.267  10.395  4.4543 H	1 RES1 0.0
49 C22	1.25  8.7318  2.2137 C.3	1 RES1 0.0
50 H23	0.9426  9.4391  1.6636 H	1 RES1 0.0
51 H24	1.2963  7.9344  1.705 H	1 RES1 0.0
52 H25	2.1103  8.9432  2.5492 H	1 RES1 0.0
53 N5	3.9715  4.1742  8.1858 N.pl3	1 RES1 0.0
54 H26	4.562  4.5121  8.6216 H	1 RES1 0.0
55 C23	3.0078  3.4113  8.916 C.ar	1 RES1 0.0
56 C24	2.2875  4.0507  9.9357 C.ar	1 RES1 0.0
57 C25	1.3852  3.2986  10.6854 C.ar	1 RES1 0.0
58 H27	0.9283  3.6919  11.3267 H	1 RES1 0.0
59 C26	1.1876  1.9438  10.4452 C.ar	1 RES1 0.0
60 C27	1.9277  1.3406  9.4363 C.ar	1 RES1 0.0
61 H28	1.8094  0.445  9.2754 H	1 RES1 0.0
62 C28	2.8439  2.0494  8.6603 C.ar	1 RES1 0.0
63 C29	2.4664  5.5203  10.2099 C.3	1 RES1 0.0
64 H29	1.8843  5.7858  10.9308 H	1 RES1 0.0
65 H30	2.2478  6.0243  9.4175 H	1 RES1 0.0
66 H31	3.3822  5.6919  10.4563 H	1 RES1 0.0
67 C30	0.2085  1.1564  11.2714 C.3	1 RES1 0.0
68 H32	-0.0517  0.3941  10.8011 H	1 RES1 0.0
69 H33	-0.5408  1.6819  11.4508 H	1 RES1 0.0
70 H34	0.611  0.9051  12.0744 H	1 RES1 0.0
71 C31	3.6199  1.3363  7.5899 C.3	1 RES1 0.0
72 H35	3.6635  0.4242  7.7912 H	1 RES1 0.0
73 H36	4.4864  1.6876  7.5456 H	1 RES1 0.0
74 H37	3.1932  1.4538  6.7648 H	1 RES1 0.0
@<TRIPOS>BOND
1 1 2 1
1 1 5 1
1 1 6 1
1 2 3 1
1 3 4 1
1 3 26 1
1 4 5 2
1 5 53 1
1 6 7 ar
1 6 13 ar
1 7 8 ar
1 7 14 1
1 8 9 1
1 8 10 ar
1 10 11 ar
1 10 18 1
1 11 12 1
1 11 13 ar
1 13 22 1
1 14 15 1
1 14 16 1
1 14 17 1
1 18 19 1
1 18 20 1
1 18 21 1
1 22 23 1
1 22 24 1
1 22 25 1
1 26 27 1
1 26 28 1
1 26 29 1
1 29 30 2
1 29 31 am
1 31 32 1
1 31 33 1
1 33 34 ar
1 33 40 ar
1 34 35 ar
1 34 41 1
1 35 36 1
1 35 37 ar
1 37 38 ar
1 37 45 1
1 38 39 1
1 38 40 ar
1 40 49 1
1 41 42 1
1 41 43 1
1 41 44 1
1 45 46 1
1 45 47 1
1 45 48 1
1 49 50 1
1 49 51 1
1 49 52 1
1 53 54 1
1 53 55 1
1 55 56 ar
1 55 62 ar
1 56 57 ar
1 56 63 1
1 57 58 1
1 57 59 ar
1 59 60 ar
1 59 67 1
1 60 61 1
1 60 62 ar
1 62 71 1
1 63 64 1
1 63 65 1
1 63 66 1
1 67 68 1
1 67 69 1
1 67 70 1
1 71 72 1
1 71 73 1
1 71 74 1
@<TRIPOS>SUBSTRUCTURE
1 RES1 74

