@<TRIPOS>MOLECULE

33	33	1
SMALL
PartialCharges
****
Generated from molSimplify

@<TRIPOS>ATOM
1 C1	9.0509  18.2591  7.2193 C.3	1 RES1 0.0
2 C2	9.4195  16.1001  7.7314 C.2	1 RES1 0.0
3 H1	9.7552  15.3366  8.1628 H	1 RES1 0.0
4 C3	8.5856  16.1246  6.6838 C.2	1 RES1 0.0
5 H2	8.216  15.3805  6.2443 H	1 RES1 0.0
6 C4	10.647  17.848  9.0606 C.3	1 RES1 0.0
7 H3	10.5797  17.2649  9.8463 H	1 RES1 0.0
8 H4	10.4391  18.7637  9.3423 H	1 RES1 0.0
9 C5	12.0514  17.7945  8.5099 C.2	1 RES1 0.0
10 C6	14.1784  18.8083  8.622 C.3	1 RES1 0.0
11 H5	14.1305  19.2325  7.7404 H	1 RES1 0.0
12 H6	14.6092  17.9346  8.5216 H	1 RES1 0.0
13 C7	14.9589  19.657  9.5548 C.3	1 RES1 0.0
14 H7	15.8566  19.7775  9.2077 H	1 RES1 0.0
15 H8	14.5276  20.5212  9.6445 H	1 RES1 0.0
16 H9	15.0044  19.2256  10.4231 H	1 RES1 0.0
17 C8	7.4679  17.9279  5.3429 C.3	1 RES1 0.0
18 H10	7.4587  17.288  4.6003 H	1 RES1 0.0
19 H11	7.7884  18.7868  4.9976 H	1 RES1 0.0
20 C9	6.0661  18.0942  5.8775 C.2	1 RES1 0.0
21 C10	4.0575  19.2759  5.5627 C.3	1 RES1 0.0
22 H12	4.0934  19.8006  6.3905 H	1 RES1 0.0
23 H13	3.5544  18.4543  5.7385 H	1 RES1 0.0
24 C11	3.3998  20.0577  4.4926 C.3	1 RES1 0.0
25 H14	2.4978  20.2856  4.7671 H	1 RES1 0.0
26 H15	3.9032  20.8699  4.3294 H	1 RES1 0.0
27 H16	3.366  19.5281  3.68 H	1 RES1 0.0
28 N1	9.6908  17.4203  8.057 N.pl3	1 RES1 0.0
29 N2	8.3733  17.4557  6.3717 N.pl3	1 RES1 0.0
30 O1	12.4062  17.0719  7.6193 O.2	1 RES1 0.0
31 O2	12.8347  18.6443  9.1719 O.3	1 RES1 0.0
32 O3	5.6209  17.5196  6.8318 O.2	1 RES1 0.0
33 O4	5.4033  18.9529  5.1178 O.3	1 RES1 0.0
@<TRIPOS>BOND
1 1 28 1
1 1 29 1
1 2 3 1
1 2 4 2
1 2 28 1
1 4 5 1
1 4 29 1
1 6 7 1
1 6 8 1
1 6 9 1
1 6 28 1
1 9 30 2
1 9 31 1
1 10 11 1
1 10 12 1
1 10 13 1
1 10 31 1
1 13 14 1
1 13 15 1
1 13 16 1
1 17 18 1
1 17 19 1
1 17 20 1
1 17 29 1
1 20 32 2
1 20 33 1
1 21 22 1
1 21 23 1
1 21 24 1
1 21 33 1
1 24 25 1
1 24 26 1
1 24 27 1
@<TRIPOS>SUBSTRUCTURE
1 RES1 33

