@<TRIPOS>MOLECULE

38	39	1
SMALL
PartialCharges
****
Generated from molSimplify

@<TRIPOS>ATOM
1 C1	6.4465  1.2713  2.8092 C.3	1 RES1 0.0
2 C2	6.6157  -0.4087  4.255 C.2	1 RES1 0.0
3 H1	6.6984  -0.8752  5.0778 H	1 RES1 0.0
4 C3	6.5446  -0.9685  3.0348 C.2	1 RES1 0.0
5 C4	6.5882  1.9062  5.2212 C.3	1 RES1 0.0
6 H2	6.9465  2.7688  4.8924 H	1 RES1 0.0
7 H3	7.2136  1.5633  5.9089 H	1 RES1 0.0
8 C5	5.2405  2.1551  5.8696 C.3	1 RES1 0.0
9 H4	4.6527  2.6119  5.2011 H	1 RES1 0.0
10 C6	5.4304  3.0908  7.0487 C.3	1 RES1 0.0
11 H5	5.9867  2.6532  7.7263 H	1 RES1 0.0
12 H6	4.5575  3.311  7.4341 H	1 RES1 0.0
13 H7	5.8714  3.911  6.7455 H	1 RES1 0.0
14 C7	4.5562  0.8972  6.3089 C.3	1 RES1 0.0
15 H8	4.3443  0.3495  5.5244 H	1 RES1 0.0
16 H9	3.729  1.1229  6.782 H	1 RES1 0.0
17 H10	5.148  0.3936  6.9071 H	1 RES1 0.0
18 C8	6.5573  -2.3956  2.6832 C.ar	1 RES1 0.0
19 C9	5.9283  -3.2959  3.5426 C.ar	1 RES1 0.0
20 H11	5.4423  -2.9697  4.2897 H	1 RES1 0.0
21 C10	6.0049  -4.6624  3.3207 C.ar	1 RES1 0.0
22 H12	5.5783  -5.2679  3.918 H	1 RES1 0.0
23 C11	6.6999  -5.1435  2.2321 C.ar	1 RES1 0.0
24 C12	7.3299  -4.2633  1.3663 C.ar	1 RES1 0.0
25 H13	7.8101  -4.5963  0.6165 H	1 RES1 0.0
26 C13	7.2601  -2.9015  1.5964 C.ar	1 RES1 0.0
27 H14	7.6988  -2.3037  1.0028 H	1 RES1 0.0
28 C14	6.3714  -7.4009  2.9024 C.3	1 RES1 0.0
29 H15	6.8101  -7.2248  3.7609 H	1 RES1 0.0
30 H16	6.576  -8.3147  2.612 H	1 RES1 0.0
31 H17	5.4016  -7.3019  3.0038 H	1 RES1 0.0
32 C15	6.3323  0.0091  0.6895 C.3	1 RES1 0.0
33 H18	5.8505  0.7899  0.347 H	1 RES1 0.0
34 H19	5.8448  -0.8064  0.4484 H	1 RES1 0.0
35 H20	7.2298  -0.0193  0.2977 H	1 RES1 0.0
36 N1	6.438  0.1007  2.1398 N.pl3	1 RES1 0.0
37 N2	6.5489  0.9553  4.1061 N.pl3	1 RES1 0.0
38 O1	6.8486  -6.472  1.9234 O.3	1 RES1 0.0
@<TRIPOS>BOND
1 1 36 1
1 1 37 1
1 2 3 1
1 2 4 2
1 2 37 1
1 4 18 1
1 4 36 1
1 5 6 1
1 5 7 1
1 5 8 1
1 5 37 1
1 8 9 1
1 8 10 1
1 8 14 1
1 10 11 1
1 10 12 1
1 10 13 1
1 14 15 1
1 14 16 1
1 14 17 1
1 18 19 ar
1 18 26 ar
1 19 20 1
1 19 21 ar
1 21 22 1
1 21 23 ar
1 23 24 ar
1 23 38 1
1 24 25 1
1 24 26 ar
1 26 27 1
1 28 29 1
1 28 30 1
1 28 31 1
1 28 38 1
1 32 33 1
1 32 34 1
1 32 35 1
1 32 36 1
@<TRIPOS>SUBSTRUCTURE
1 RES1 38

