@<TRIPOS>MOLECULE

52	56	1
SMALL
PartialCharges
****
Generated from molSimplify

@<TRIPOS>ATOM
1 N1	7.9443  2.1032  3.2249 N.pl3	1 RES1 0.0
2 N2	8.2714  1.635  5.3051 N.pl3	1 RES1 0.0
3 C1	7.7509  2.5781  4.4793 C.3	1 RES1 0.0
4 C2	8.5654  0.8713  3.2624 C.2	1 RES1 0.0
5 H1	8.7975  0.3376  2.5242 H	1 RES1 0.0
6 C3	8.7717  0.5852  4.545 C.2	1 RES1 0.0
7 H2	9.1844  -0.191  4.8788 H	1 RES1 0.0
8 C4	7.571  2.7167  1.9679 C.ar	1 RES1 0.0
9 C5	6.4538  2.2377  1.2973 C.ar	1 RES1 0.0
10 C6	6.1735  2.7894  0.0438 C.ar	1 RES1 0.0
11 H3	5.4169  2.4886  -0.4266 H	1 RES1 0.0
12 C7	6.9714  3.7623  -0.5253 C.ar	1 RES1 0.0
13 C8	8.089  4.1764  0.1597 C.ar	1 RES1 0.0
14 H4	8.6387  4.8345  -0.2252 H	1 RES1 0.0
15 C9	8.4341  3.6574  1.3993 C.ar	1 RES1 0.0
16 C10	5.58  1.1461  1.8526 C.3	1 RES1 0.0
17 H5	4.816  1.0148  1.2695 H	1 RES1 0.0
18 H6	5.2725  1.3962  2.7376 H	1 RES1 0.0
19 H7	6.0889  0.3214  1.9084 H	1 RES1 0.0
20 C11	6.6449  4.3375  -1.8909 C.3	1 RES1 0.0
21 H8	5.9806  3.7806  -2.3261 H	1 RES1 0.0
22 H9	7.4494  4.3642  -2.4317 H	1 RES1 0.0
23 H10	6.2949  5.2367  -1.7876 H	1 RES1 0.0
24 C12	9.7385  4.0429  2.037 C.3	1 RES1 0.0
25 H11	10.2958  4.4951  1.3841 H	1 RES1 0.0
26 H12	10.1919  3.246  2.3526 H	1 RES1 0.0
27 H13	9.5695  4.637  2.7846 H	1 RES1 0.0
28 C13	8.3838  1.6528  6.8008 C.3	1 RES1 0.0
29 C14	8.2814  0.2348  7.3594 C.3	1 RES1 0.0
30 H14	8.9597  -0.3352  6.9397 H	1 RES1 0.0
31 H15	7.399  -0.1387  7.1556 H	1 RES1 0.0
32 C15	8.4965  0.2624  8.8872 C.3	1 RES1 0.0
33 H16	8.5019  -0.6584  9.2527 H	1 RES1 0.0
34 C16	7.3677  1.0679  9.4943 C.3	1 RES1 0.0
35 H17	7.4503  1.0652  10.4713 H	1 RES1 0.0
36 H18	6.5083  0.6573  9.2611 H	1 RES1 0.0
37 C17	7.4059  2.5316  8.9723 C.3	1 RES1 0.0
38 H19	6.6933  3.0725  9.3952 H	1 RES1 0.0
39 C18	7.2161  2.4825  7.4388 C.3	1 RES1 0.0
40 H20	7.2181  3.3929  7.0747 H	1 RES1 0.0
41 H21	6.3556  2.0673  7.2226 H	1 RES1 0.0
42 C19	9.6644  2.2846  7.148 C.3	1 RES1 0.0
43 H22	9.6877  3.1962  6.7895 H	1 RES1 0.0
44 H23	10.3993  1.7792  6.7428 H	1 RES1 0.0
45 C20	9.8521  2.3291  8.6602 C.3	1 RES1 0.0
46 H24	10.726  2.7404  8.8749 H	1 RES1 0.0
47 C21	8.7737  3.1177  9.2688 C.3	1 RES1 0.0
48 H25	8.8128  4.0354  8.9274 H	1 RES1 0.0
49 H26	8.9067  3.1513  10.2395 H	1 RES1 0.0
50 C22	9.7979  0.9697  9.212 C.3	1 RES1 0.0
51 H27	9.904  1.0155  10.1858 H	1 RES1 0.0
52 H28	10.5459  0.4487  8.8532 H	1 RES1 0.0
@<TRIPOS>BOND
1 1 3 1
1 1 4 1
1 1 8 1
1 2 3 1
1 2 6 1
1 2 28 1
1 4 5 1
1 4 6 2
1 6 7 1
1 8 9 ar
1 8 15 ar
1 9 10 ar
1 9 16 1
1 10 11 1
1 10 12 ar
1 12 13 ar
1 12 20 1
1 13 14 1
1 13 15 ar
1 15 24 1
1 16 17 1
1 16 18 1
1 16 19 1
1 20 21 1
1 20 22 1
1 20 23 1
1 24 25 1
1 24 26 1
1 24 27 1
1 28 29 1
1 28 39 1
1 28 42 1
1 29 30 1
1 29 31 1
1 29 32 1
1 32 33 1
1 32 34 1
1 32 50 1
1 34 35 1
1 34 36 1
1 34 37 1
1 37 38 1
1 37 39 1
1 37 47 1
1 39 40 1
1 39 41 1
1 42 43 1
1 42 44 1
1 42 45 1
1 45 46 1
1 45 47 1
1 45 50 1
1 47 48 1
1 47 49 1
1 50 51 1
1 50 52 1
@<TRIPOS>SUBSTRUCTURE
1 RES1 52

