@<TRIPOS>MOLECULE

197	203	1
SMALL
PartialCharges
****
Generated from molSimplify

@<TRIPOS>ATOM
1 N1	6.8347  11.6859  19.6303 N.pl3	1 RES1 0.0
2 N2	8.4012  10.1542  19.4869 N.pl3	1 RES1 0.0
3 C1	7.6074  10.8703  20.3978 C.3	1 RES1 0.0
4 C2	7.0455  11.5376  18.2565 C.3	1 RES1 0.0
5 H1	7.3901  12.381  17.8675 H	1 RES1 0.0
6 H2	6.1985  11.3034  17.8007 H	1 RES1 0.0
7 C3	8.0236  10.467  18.0952 C.3	1 RES1 0.0
8 H3	8.807  10.7722  17.5724 H	1 RES1 0.0
9 H4	7.6225  9.6797  17.6478 H	1 RES1 0.0
10 C4	5.8566  12.5937  20.2156 C.ar	1 RES1 0.0
11 C5	6.178  13.8704  20.3918 C.ar	1 RES1 0.0
12 C6	5.1577  14.7819  20.8846 C.ar	1 RES1 0.0
13 H5	5.3961  15.6635  21.1467 H	1 RES1 0.0
14 C7	3.8423  14.3714  20.9742 C.ar	1 RES1 0.0
15 C8	3.5877  13.0566  20.7741 C.ar	1 RES1 0.0
16 H6	2.7056  12.7578  20.9569 H	1 RES1 0.0
17 C9	4.5184  12.0765  20.3142 C.ar	1 RES1 0.0
18 C10	4.1672  10.713  20.0155 C.3	1 RES1 0.0
19 H7	4.9974  10.2284  19.7406 H	1 RES1 0.0
20 C11	3.1487  10.684  18.7911 C.3	1 RES1 0.0
21 H8	2.2364  10.8158  19.1238 H	1 RES1 0.0
22 H9	3.2093  9.8176  18.3376 H	1 RES1 0.0
23 H10	3.3747  11.3996  18.1623 H	1 RES1 0.0
24 C12	3.521  9.9408  21.1653 C.ar	1 RES1 0.0
25 C13	3.3348  10.505  22.4883 C.ar	1 RES1 0.0
26 H11	3.5568  11.4095  22.6717 H	1 RES1 0.0
27 C14	2.8027  9.6478  23.5067 C.ar	1 RES1 0.0
28 C15	2.4884  8.277  23.1932 C.ar	1 RES1 0.0
29 H12	2.0988  7.7126  23.8515 H	1 RES1 0.0
30 C16	2.7483  7.8032  21.9717 C.ar	1 RES1 0.0
31 C17	3.3015  8.5573  20.8936 C.ar	1 RES1 0.0
32 H13	3.5085  8.1655  20.0547 H	1 RES1 0.0
33 C18	2.3461  6.1431  21.673 C.3	1 RES1 0.0
34 C19	3.312  5.4795  22.5331 C.3	1 RES1 0.0
35 H14	4.219  5.6946  22.2343 H	1 RES1 0.0
36 H15	3.1746  4.5096  22.491 H	1 RES1 0.0
37 H16	3.1903  5.7855  23.4567 H	1 RES1 0.0
38 C20	0.8552  5.946  22.0732 C.3	1 RES1 0.0
39 H17	0.7088  6.3039  22.9749 H	1 RES1 0.0
40 H18	0.6376  4.9895  22.0647 H	1 RES1 0.0
41 H19	0.2785  6.4174  21.4377 H	1 RES1 0.0
42 C21	2.4603  5.9153  20.1051 C.3	1 RES1 0.0
43 H20	1.7752  6.4448  19.6461 H	1 RES1 0.0
44 H21	2.3284  4.9651  19.9022 H	1 RES1 0.0
45 H22	3.3484  6.1938  19.7978 H	1 RES1 0.0
46 C22	2.4673  10.2157  24.8447 C.3	1 RES1 0.0
47 C23	3.0381  9.3223  25.9139 C.3	1 RES1 0.0
48 H23	2.3985  9.2455  26.6524 H	1 RES1 0.0
49 H24	3.8769  9.7048  26.2467 H	1 RES1 0.0
50 H25	3.2117  8.4328  25.5391 H	1 RES1 0.0
51 C24	2.9661  11.6352  25.003 C.3	1 RES1 0.0
52 H26	2.6455  12.0027  25.852 H	1 RES1 0.0
53 H27	2.6311  12.1834  24.262 H	1 RES1 0.0
54 H28	3.9467  11.6405  24.9937 H	1 RES1 0.0
55 C25	0.9307  10.1126  25.0299 C.3	1 RES1 0.0
56 H29	0.6829  10.4631  25.9105 H	1 RES1 0.0
57 H30	0.6554  9.1736  24.9632 H	1 RES1 0.0
58 H31	0.4819  10.6339  24.332 H	1 RES1 0.0
59 C26	7.5951  14.4491  20.141 C.3	1 RES1 0.0
60 H32	8.2245  13.6811  20.2549 H	1 RES1 0.0
61 C27	8.0482  15.4817  21.0877 C.3	1 RES1 0.0
62 H33	8.8682  15.8983  20.7501 H	1 RES1 0.0
63 H34	8.2251  15.0705  21.9593 H	1 RES1 0.0
64 H35	7.3513  16.1648  21.1847 H	1 RES1 0.0
65 C28	7.7549  14.9139  18.6208 C.ar	1 RES1 0.0
66 C29	8.9263  15.1544  18.0922 C.ar	1 RES1 0.0
67 H36	9.6903  15.0498  18.6456 H	1 RES1 0.0
68 C30	9.1352  15.5559  16.7573 C.ar	1 RES1 0.0
69 C31	7.9955  15.8669  16.1092 C.ar	1 RES1 0.0
70 H37	8.0988  16.2349  15.2388 H	1 RES1 0.0
71 C32	6.7206  15.7204  16.5452 C.ar	1 RES1 0.0
72 C33	6.5485  15.2322  17.8742 C.ar	1 RES1 0.0
73 H38	5.6845  15.1203  18.254 H	1 RES1 0.0
74 C34	5.4544  16.0315  15.6702 C.3	1 RES1 0.0
75 C35	5.4334  17.5451  15.4402 C.3	1 RES1 0.0
76 H39	6.185  17.9579  15.915 H	1 RES1 0.0
77 H40	4.591  17.915  15.7796 H	1 RES1 0.0
78 H41	5.5095  17.7324  14.4819 H	1 RES1 0.0
79 C36	4.2252  15.7566  16.4048 C.3	1 RES1 0.0
80 H42	3.4784  15.6794  15.7737 H	1 RES1 0.0
81 H43	4.0488  16.4899  17.0302 H	1 RES1 0.0
82 H44	4.3215  14.9183  16.901 H	1 RES1 0.0
83 C37	5.6406  15.4094  14.3262 C.3	1 RES1 0.0
84 H45	6.598  15.289  14.1539 H	1 RES1 0.0
85 H46	5.2557  15.9934  13.641 H	1 RES1 0.0
86 H47	5.1924  14.539  14.3056 H	1 RES1 0.0
87 C38	10.512  15.7367  16.1898 C.3	1 RES1 0.0
88 C39	10.5858  16.2159  14.813 C.3	1 RES1 0.0
89 H48	10.1086  15.594  14.2245 H	1 RES1 0.0
90 H49	11.5246  16.2711  14.5365 H	1 RES1 0.0
91 H50	10.1748  17.1029  14.7536 H	1 RES1 0.0
92 C40	11.2127  14.2846  16.2555 C.3	1 RES1 0.0
93 H51	10.9316  13.8227  17.0725 H	1 RES1 0.0
94 H52	12.1875  14.3923  16.2605 H	1 RES1 0.0
95 H53	10.9472  13.7571  15.4737 H	1 RES1 0.0
96 C41	11.3023  16.6988  17.1365 C.3	1 RES1 0.0
97 H54	11.0845  17.6275  16.9123 H	1 RES1 0.0
98 H55	12.2642  16.5518  17.0214 H	1 RES1 0.0
99 H56	11.0523  16.519  18.0661 H	1 RES1 0.0
100 C42	2.7799  15.3153  21.5058 C.3	1 RES1 0.0
101 H57	3.2114  16.0799  21.9413 H	1 RES1 0.0
102 H58	2.2172  14.844  22.1536 H	1 RES1 0.0
103 H59	2.2259  15.634  20.7619 H	1 RES1 0.0
104 C43	9.2143  9.0908  19.8244 C.ar	1 RES1 0.0
105 C44	8.8174  7.8177  19.7049 C.ar	1 RES1 0.0
106 C45	9.6638  6.7272  19.9707 C.ar	1 RES1 0.0
107 H60	9.3422  5.8328  19.959 H	1 RES1 0.0
108 C46	11.0669  7.0383  20.2634 C.ar	1 RES1 0.0
109 C47	11.4884  8.2879  20.3321 C.ar	1 RES1 0.0
110 H61	12.3932  8.4553  20.5661 H	1 RES1 0.0
111 C48	10.642  9.3729  20.0723 C.ar	1 RES1 0.0
112 C49	11.2039  10.7274  20.2186 C.3	1 RES1 0.0
113 H62	10.4955  11.279  20.6596 H	1 RES1 0.0
114 C50	12.4472  10.8251  21.1146 C.ar	1 RES1 0.0
115 C51	13.6993  10.7437  20.5262 C.ar	1 RES1 0.0
116 H63	13.7881  10.7394  19.5797 H	1 RES1 0.0
117 C52	14.8812  10.6623  21.3833 C.ar	1 RES1 0.0
118 C53	14.6388  10.6895  22.7691 C.ar	1 RES1 0.0
119 H64	15.3942  10.6674  23.3469 H	1 RES1 0.0
120 C54	13.4307  10.7455  23.3395 C.ar	1 RES1 0.0
121 C55	12.2172  10.7943  22.5063 C.ar	1 RES1 0.0
122 H65	11.343  10.803  22.8791 H	1 RES1 0.0
123 C56	13.1321  10.7256  24.8537 C.3	1 RES1 0.0
124 C57	12.377  11.8975  25.2389 C.3	1 RES1 0.0
125 H66	12.4042  11.9981  26.214 H	1 RES1 0.0
126 H67	11.4473  11.7987  24.9468 H	1 RES1 0.0
127 H68	12.7695  12.691  24.8185 H	1 RES1 0.0
128 C58	12.3155  9.4055  25.1314 C.3	1 RES1 0.0
129 H69	11.5867  9.3305  24.4798 H	1 RES1 0.0
130 H70	11.9443  9.4344  26.0362 H	1 RES1 0.0
131 H71	12.9102  8.6307  25.0451 H	1 RES1 0.0
132 C59	14.3807  10.6949  25.6033 C.3	1 RES1 0.0
133 H72	14.9269  9.941  25.2994 H	1 RES1 0.0
134 H73	14.1858  10.5918  26.5596 H	1 RES1 0.0
135 H74	14.8689  11.5322  25.4596 H	1 RES1 0.0
136 C60	16.2123  10.552  20.7532 C.3	1 RES1 0.0
137 C61	17.1694  11.5231  21.458 C.3	1 RES1 0.0
138 H75	17.9487  11.0313  21.79 H	1 RES1 0.0
139 H76	16.7061  11.9473  22.2118 H	1 RES1 0.0
140 H77	17.4616  12.2122  20.8261 H	1 RES1 0.0
141 C62	16.7181  9.0963  21.1086 C.3	1 RES1 0.0
142 H78	17.0344  9.0841  22.0359 H	1 RES1 0.0
143 H79	17.4504  8.8532  20.508 H	1 RES1 0.0
144 H80	15.9795  8.4645  21.0043 H	1 RES1 0.0
145 C63	16.3054  10.6696  19.2629 C.3	1 RES1 0.0
146 H81	15.8062  11.4478  18.962 H	1 RES1 0.0
147 H82	15.9271  9.8558  18.8538 H	1 RES1 0.0
148 H83	17.2459  10.7501  19.0012 H	1 RES1 0.0
149 C64	11.4322  11.3549  18.8179 C.3	1 RES1 0.0
150 H84	12.2382  10.9692  18.416 H	1 RES1 0.0
151 H85	11.5435  12.324  18.909 H	1 RES1 0.0
152 H86	10.6591  11.1664  18.2465 H	1 RES1 0.0
153 C65	11.9994  5.7652  20.4277 C.3	1 RES1 0.0
154 H87	12.1624  5.3654  19.5468 H	1 RES1 0.0
155 H88	11.5598  5.1103  21.0072 H	1 RES1 0.0
156 H89	12.8532  6.035  20.8256 H	1 RES1 0.0
157 C66	7.4371  7.4361  19.4093 C.3	1 RES1 0.0
158 H90	6.8537  8.2089  19.6634 H	1 RES1 0.0
159 C67	6.8523  6.1847  20.0812 C.3	1 RES1 0.0
160 H91	5.8772  6.1903  19.9929 H	1 RES1 0.0
161 H92	7.0943  6.1814  21.032 H	1 RES1 0.0
162 H93	7.2159  5.383  19.6504 H	1 RES1 0.0
163 C68	7.2351  7.1848  17.8443 C.ar	1 RES1 0.0
164 C69	5.9444  7.0057  17.3396 C.ar	1 RES1 0.0
165 H94	5.1885  7.0347  17.9142 H	1 RES1 0.0
166 C70	5.7846  6.7815  15.936 C.ar	1 RES1 0.0
167 C71	6.8892  6.7869  15.1625 C.ar	1 RES1 0.0
168 H95	6.7627  6.6185  14.2359 H	1 RES1 0.0
169 C72	8.1606  7.0094  15.5716 C.ar	1 RES1 0.0
170 C73	8.352  7.1739  17.0081 C.ar	1 RES1 0.0
171 H96	9.2247  7.2721  17.3674 H	1 RES1 0.0
172 C74	9.3302  7.1378  14.6637 C.3	1 RES1 0.0
173 C75	10.7526  6.9985  15.3207 C.3	1 RES1 0.0
174 H97	11.3456  6.5025  14.7125 H	1 RES1 0.0
175 H98	10.6733  6.4991  16.1648 H	1 RES1 0.0
176 H99	11.1259  7.8806  15.4958 H	1 RES1 0.0
177 C76	9.209  8.3675  13.9171 C.3	1 RES1 0.0
178 H100	9.1722  8.1649  12.9581 H	1 RES1 0.0
179 H101	9.9841  8.9387  14.0997 H	1 RES1 0.0
180 H102	8.3896  8.8326  14.1839 H	1 RES1 0.0
181 C77	9.3073  5.9279  13.6214 C.3	1 RES1 0.0
182 H103	9.6646  6.2305  12.7604 H	1 RES1 0.0
183 H104	8.3863  5.6165  13.5021 H	1 RES1 0.0
184 H105	9.859  5.1926  13.963 H	1 RES1 0.0
185 C78	4.2849  6.5482  15.4044 C.3	1 RES1 0.0
186 C79	3.3524  7.6839  15.7508 C.3	1 RES1 0.0
187 H106	3.3694  7.8361  16.7182 H	1 RES1 0.0
188 H107	2.4418  7.4542  15.4714 H	1 RES1 0.0
189 H108	3.6418  8.4966  15.2862 H	1 RES1 0.0
190 C80	3.8599  5.3366  16.0972 C.3	1 RES1 0.0
191 H109	4.6352  4.7577  16.2497 H	1 RES1 0.0
192 H110	3.2011  4.8609  15.5472 H	1 RES1 0.0
193 H111	3.4552  5.576  16.9561 H	1 RES1 0.0
194 C81	4.2708  6.3746  13.9111 C.3	1 RES1 0.0
195 H112	4.6228  7.1834  13.4832 H	1 RES1 0.0
196 H113	3.3513  6.2196  13.6079 H	1 RES1 0.0
197 H114	4.8285  5.6067  13.6646 H	1 RES1 0.0
@<TRIPOS>BOND
1 1 3 1
1 1 4 1
1 1 10 1
1 2 3 1
1 2 7 1
1 2 104 1
1 4 5 1
1 4 6 1
1 4 7 1
1 7 8 1
1 7 9 1
1 10 11 ar
1 10 17 ar
1 11 12 ar
1 11 59 1
1 12 13 1
1 12 14 ar
1 14 15 ar
1 14 100 1
1 15 16 1
1 15 17 ar
1 17 18 1
1 18 19 1
1 18 20 1
1 18 24 1
1 20 21 1
1 20 22 1
1 20 23 1
1 24 25 ar
1 24 31 ar
1 25 26 1
1 25 27 ar
1 27 28 ar
1 27 46 1
1 28 29 1
1 28 30 ar
1 30 31 ar
1 30 33 1
1 31 32 1
1 33 34 1
1 33 38 1
1 33 42 1
1 34 35 1
1 34 36 1
1 34 37 1
1 38 39 1
1 38 40 1
1 38 41 1
1 42 43 1
1 42 44 1
1 42 45 1
1 46 47 1
1 46 51 1
1 46 55 1
1 47 48 1
1 47 49 1
1 47 50 1
1 51 52 1
1 51 53 1
1 51 54 1
1 55 56 1
1 55 57 1
1 55 58 1
1 59 60 1
1 59 61 1
1 59 65 1
1 61 62 1
1 61 63 1
1 61 64 1
1 65 66 ar
1 65 72 ar
1 66 67 1
1 66 68 ar
1 68 69 ar
1 68 87 1
1 69 70 1
1 69 71 ar
1 71 72 ar
1 71 74 1
1 72 73 1
1 74 75 1
1 74 79 1
1 74 83 1
1 75 76 1
1 75 77 1
1 75 78 1
1 79 80 1
1 79 81 1
1 79 82 1
1 83 84 1
1 83 85 1
1 83 86 1
1 87 88 1
1 87 92 1
1 87 96 1
1 88 89 1
1 88 90 1
1 88 91 1
1 92 93 1
1 92 94 1
1 92 95 1
1 96 97 1
1 96 98 1
1 96 99 1
1 100 101 1
1 100 102 1
1 100 103 1
1 104 105 ar
1 104 111 ar
1 105 106 ar
1 105 157 1
1 106 107 1
1 106 108 ar
1 108 109 ar
1 108 153 1
1 109 110 1
1 109 111 ar
1 111 112 1
1 112 113 1
1 112 114 1
1 112 149 1
1 114 115 ar
1 114 121 ar
1 115 116 1
1 115 117 ar
1 117 118 ar
1 117 136 1
1 118 119 1
1 118 120 ar
1 120 121 ar
1 120 123 1
1 121 122 1
1 123 124 1
1 123 128 1
1 123 132 1
1 124 125 1
1 124 126 1
1 124 127 1
1 128 129 1
1 128 130 1
1 128 131 1
1 132 133 1
1 132 134 1
1 132 135 1
1 136 137 1
1 136 141 1
1 136 145 1
1 137 138 1
1 137 139 1
1 137 140 1
1 141 142 1
1 141 143 1
1 141 144 1
1 145 146 1
1 145 147 1
1 145 148 1
1 149 150 1
1 149 151 1
1 149 152 1
1 153 154 1
1 153 155 1
1 153 156 1
1 157 158 1
1 157 159 1
1 157 163 1
1 159 160 1
1 159 161 1
1 159 162 1
1 163 164 ar
1 163 170 ar
1 164 165 1
1 164 166 ar
1 166 167 ar
1 166 185 1
1 167 168 1
1 167 169 ar
1 169 170 ar
1 169 172 1
1 170 171 1
1 172 173 1
1 172 177 1
1 172 181 1
1 173 174 1
1 173 175 1
1 173 176 1
1 177 178 1
1 177 179 1
1 177 180 1
1 181 182 1
1 181 183 1
1 181 184 1
1 185 186 1
1 185 190 1
1 185 194 1
1 186 187 1
1 186 188 1
1 186 189 1
1 190 191 1
1 190 192 1
1 190 193 1
1 194 195 1
1 194 196 1
1 194 197 1
@<TRIPOS>SUBSTRUCTURE
1 RES1 197

