@<TRIPOS>MOLECULE

45	45	1
SMALL
PartialCharges
****
Generated from molSimplify

@<TRIPOS>ATOM
1 N1	1.0485  3.715  8.3049 N.pl3	1 RES1 0.0
2 N2	1.3677  1.8726  7.2603 N.pl3	1 RES1 0.0
3 O1	-2.5405  5.5853  12.2475 O.3	1 RES1 0.0
4 O2	-0.8399  7.2554  13.5019 O.3	1 RES1 0.0
5 O3	-0.695  4.5827  13.6129 O.3	1 RES1 0.0
6 Si1	-1.0162  5.8717  12.6772 Si	1 RES1 0.0
7 C1	1.8062  2.61  8.2897 C.3	1 RES1 0.0
8 C2	0.1196  3.6586  7.2983 C.2	1 RES1 0.0
9 H1	-0.5246  4.3018  7.1098 H	1 RES1 0.0
10 C3	0.3062  2.5165  6.6415 C.2	1 RES1 0.0
11 H2	-0.1796  2.2112  5.9101 H	1 RES1 0.0
12 C4	1.1541  4.8085  9.2811 C.3	1 RES1 0.0
13 H3	1.1157  5.657  8.8128 H	1 RES1 0.0
14 H4	2.0129  4.7541  9.7281 H	1 RES1 0.0
15 C5	0.0583  4.764  10.3104 C.3	1 RES1 0.0
16 H5	0.1531  3.9614  10.8472 H	1 RES1 0.0
17 H6	-0.8019  4.7256  9.8649 H	1 RES1 0.0
18 C6	0.101  5.9969  11.2258 C.3	1 RES1 0.0
19 H7	-0.1434  6.7803  10.7088 H	1 RES1 0.0
20 H8	1.0103  6.1217  11.5405 H	1 RES1 0.0
21 C7	-3.3008  6.4228  11.3793 C.3	1 RES1 0.0
22 H9	-3.1421  6.1686  10.4579 H	1 RES1 0.0
23 H10	-3.0251  7.3458  11.4919 H	1 RES1 0.0
24 C8	-4.7348  6.29  11.6926 C.3	1 RES1 0.0
25 H11	-5.2445  6.8558  11.1072 H	1 RES1 0.0
26 H12	-4.8892  6.5507  12.6033 H	1 RES1 0.0
27 H13	-5.006  5.3767  11.5709 H	1 RES1 0.0
28 C9	-1.651  7.6439  14.6241 C.3	1 RES1 0.0
29 H14	-1.2642  7.3  15.4436 H	1 RES1 0.0
30 H15	-2.5424  7.2734  14.5283 H	1 RES1 0.0
31 C10	-1.7229  9.0875  14.6818 C.3	1 RES1 0.0
32 H16	-2.2668  9.3501  15.4284 H	1 RES1 0.0
33 H17	-2.1106  9.4217  13.8699 H	1 RES1 0.0
34 H18	-0.8399  9.4473  14.7868 H	1 RES1 0.0
35 C11	0.3873  4.4568  14.5496 C.3	1 RES1 0.0
36 H19	0.5875  5.3337  14.913 H	1 RES1 0.0
37 H20	0.0985  3.8924  15.284 H	1 RES1 0.0
38 C12	1.5745  3.9118  13.9961 C.3	1 RES1 0.0
39 H21	2.2492  3.86  14.6773 H	1 RES1 0.0
40 H22	1.883  4.4753  13.283 H	1 RES1 0.0
41 H23	1.3946  3.033  13.6555 H	1 RES1 0.0
42 C13	1.914  0.5714  6.8787 C.3	1 RES1 0.0
43 H24	1.4335  0.2324  6.12 H	1 RES1 0.0
44 H25	1.825  -0.0415  7.6116 H	1 RES1 0.0
45 H26	2.8421  0.6672  6.6521 H	1 RES1 0.0
@<TRIPOS>BOND
1 1 7 1
1 1 8 1
1 1 12 1
1 2 7 1
1 2 10 1
1 2 42 1
1 3 6 1
1 3 21 1
1 4 6 1
1 4 28 1
1 5 6 1
1 5 35 1
1 6 18 1
1 8 9 1
1 8 10 2
1 10 11 1
1 12 13 1
1 12 14 1
1 12 15 1
1 15 16 1
1 15 17 1
1 15 18 1
1 18 19 1
1 18 20 1
1 21 22 1
1 21 23 1
1 21 24 1
1 24 25 1
1 24 26 1
1 24 27 1
1 28 29 1
1 28 30 1
1 28 31 1
1 31 32 1
1 31 33 1
1 31 34 1
1 35 36 1
1 35 37 1
1 35 38 1
1 38 39 1
1 38 40 1
1 38 41 1
1 42 43 1
1 42 44 1
1 42 45 1
@<TRIPOS>SUBSTRUCTURE
1 RES1 45

