@<TRIPOS>MOLECULE

46	47	1
SMALL
PartialCharges
****
Generated from molSimplify

@<TRIPOS>ATOM
1 O1	3.0674  24.6128  5.5719 O.3	1 RES1 0.0
2 N1	6.3598  19.8566  6.2602 N.pl3	1 RES1 0.0
3 O2	0.9262  23.2311  6.3204 O.3	1 RES1 0.0
4 N2	7.1943  18.4089  7.6035 N.pl3	1 RES1 0.0
5 O3	0.9804  20.5555  6.5262 O.3	1 RES1 0.0
6 C1	6.5896  18.5441  6.404 C.3	1 RES1 0.0
7 C2	7.6682  17.1383  8.1642 C.3	1 RES1 0.0
8 H1	8.5762  17.2757  8.5353 H	1 RES1 0.0
9 H2	7.7404  16.4748  7.4328 H	1 RES1 0.0
10 C3	2.1026  22.546  6.1021 C.ar	1 RES1 0.0
11 C4	4.3961  22.5793  5.3644 C.ar	1 RES1 0.0
12 H3	5.162  23.062  5.0777 H	1 RES1 0.0
13 C5	6.8132  20.5524  7.3609 C.2	1 RES1 0.0
14 H4	6.7652  21.4907  7.4975 H	1 RES1 0.0
15 C6	5.7161  20.4715  5.0957 C.3	1 RES1 0.0
16 H5	5.5031  19.767  4.4317 H	1 RES1 0.0
17 H6	6.3459  21.1083  4.6734 H	1 RES1 0.0
18 C7	4.4426  21.2053  5.4713 C.ar	1 RES1 0.0
19 C8	2.162  21.1585  6.1883 C.ar	1 RES1 0.0
20 C9	6.7835  16.5702  9.247 C.3	1 RES1 0.0
21 H7	5.9078  16.3197  8.8606 H	1 RES1 0.0
22 H8	6.6279  17.2563  9.9416 H	1 RES1 0.0
23 C10	3.3369  20.4851  5.9008 C.ar	1 RES1 0.0
24 H9	3.385  19.5398  5.996 H	1 RES1 0.0
25 C11	7.3372  19.6434  8.2038 C.2	1 RES1 0.0
26 H10	7.7303  19.8169  9.0511 H	1 RES1 0.0
27 C12	3.2169  23.2549  5.6806 C.ar	1 RES1 0.0
28 C13	0.9556  19.1363  6.5801 C.3	1 RES1 0.0
29 H11	1.1664  18.7722  5.695 H	1 RES1 0.0
30 H12	0.0645  18.8359  6.8541 H	1 RES1 0.0
31 H13	1.6202  18.8221  7.2288 H	1 RES1 0.0
32 C14	4.2101  25.3646  5.1757 C.3	1 RES1 0.0
33 H14	4.4961  25.0795  4.2834 H	1 RES1 0.0
34 H15	4.9369  25.2152  5.8154 H	1 RES1 0.0
35 H16	3.9822  26.3182  5.1559 H	1 RES1 0.0
36 C15	0.4706  23.2197  7.6808 C.3	1 RES1 0.0
37 H17	-0.2767  23.8463  7.7806 H	1 RES1 0.0
38 H18	1.2027  23.4888  8.2739 H	1 RES1 0.0
39 H19	0.1725  22.3166  7.918 H	1 RES1 0.0
40 C16	7.4342  15.3431  9.8787 C.3	1 RES1 0.0
41 H20	7.5777  14.6569  9.1778 H	1 RES1 0.0
42 H21	8.3207  15.5964  10.2372 H	1 RES1 0.0
43 C17	6.6081  14.7412  10.992 C.3	1 RES1 0.0
44 H22	5.7043  14.5516  10.6631 H	1 RES1 0.0
45 H23	6.558  15.3719  11.7396 H	1 RES1 0.0
46 H24	7.0261  13.9087  11.2957 H	1 RES1 0.0
@<TRIPOS>BOND
1 1 27 1
1 1 32 1
1 2 6 1
1 2 13 1
1 2 15 1
1 3 10 1
1 3 36 1
1 4 6 1
1 4 7 1
1 4 25 1
1 5 19 1
1 5 28 1
1 7 8 1
1 7 9 1
1 7 20 1
1 10 19 ar
1 10 27 ar
1 11 12 1
1 11 18 ar
1 11 27 ar
1 13 14 1
1 13 25 2
1 15 16 1
1 15 17 1
1 15 18 1
1 18 23 ar
1 19 23 ar
1 20 21 1
1 20 22 1
1 20 40 1
1 23 24 1
1 25 26 1
1 28 29 1
1 28 30 1
1 28 31 1
1 32 33 1
1 32 34 1
1 32 35 1
1 36 37 1
1 36 38 1
1 36 39 1
1 40 41 1
1 40 42 1
1 40 43 1
1 43 44 1
1 43 45 1
1 43 46 1
@<TRIPOS>SUBSTRUCTURE
1 RES1 46

