@<TRIPOS>MOLECULE

28	29	1
SMALL
PartialCharges
****
Generated from molSimplify

@<TRIPOS>ATOM
1 N1	3.8771  1.0764  12.4969 N.pl3	1 RES1 0.0
2 N2	4.5099  0.1156  14.2998 N.pl3	1 RES1 0.0
3 C1	4.9196  1.0014  13.3604 C.3	1 RES1 0.0
4 C2	2.8289  0.2608  12.9024 C.2	1 RES1 0.0
5 H1	1.9917  0.1533  12.4663 H	1 RES1 0.0
6 C3	3.2298  -0.3458  14.0317 C.2	1 RES1 0.0
7 H2	2.733  -0.9699  14.5473 H	1 RES1 0.0
8 C4	3.8846  1.8435  11.2366 C.3	1 RES1 0.0
9 H3	3.6272  1.246  10.4893 H	1 RES1 0.0
10 H4	4.8011  2.1724  11.061 H	1 RES1 0.0
11 C5	2.9382  3.0158  11.2829 C.3	1 RES1 0.0
12 H5	3.1747  3.6037  12.0441 H	1 RES1 0.0
13 H6	2.013  2.69  11.4248 H	1 RES1 0.0
14 C6	3.0037  3.8083  9.9884 C.ar	1 RES1 0.0
15 C7	3.8202  4.9216  9.8841 C.ar	1 RES1 0.0
16 H7	4.3538  5.1806  10.6257 H	1 RES1 0.0
17 C8	3.8734  5.6596  8.724 C.ar	1 RES1 0.0
18 H8	4.4365  6.4227  8.6747 H	1 RES1 0.0
19 C9	3.1145  5.2978  7.6348 C.ar	1 RES1 0.0
20 H9	3.133  5.8208  6.8427 H	1 RES1 0.0
21 C10	2.3235  4.1634  7.705 C.ar	1 RES1 0.0
22 H10	1.806  3.9014  6.9532 H	1 RES1 0.0
23 C11	2.2821  3.412  8.8637 C.ar	1 RES1 0.0
24 H11	1.7577  2.621  8.8934 H	1 RES1 0.0
25 C12	5.3305  -0.3246  15.4221 C.3	1 RES1 0.0
26 H12	5.1742  -1.2779  15.5867 H	1 RES1 0.0
27 H13	5.0934  0.1879  16.2212 H	1 RES1 0.0
28 H14	6.2769  -0.1815  15.2121 H	1 RES1 0.0
@<TRIPOS>BOND
1 1 3 1
1 1 4 1
1 1 8 1
1 2 3 1
1 2 6 1
1 2 25 1
1 4 5 1
1 4 6 2
1 6 7 1
1 8 9 1
1 8 10 1
1 8 11 1
1 11 12 1
1 11 13 1
1 11 14 1
1 14 15 ar
1 14 23 ar
1 15 16 1
1 15 17 ar
1 17 18 1
1 17 19 ar
1 19 20 1
1 19 21 ar
1 21 22 1
1 21 23 ar
1 23 24 1
1 25 26 1
1 25 27 1
1 25 28 1
@<TRIPOS>SUBSTRUCTURE
1 RES1 28

