@<TRIPOS>MOLECULE

119	125	1
SMALL
PartialCharges
****
Generated from molSimplify

@<TRIPOS>ATOM
1 Na1	5.0565  2.9487  9.2209 Na	1 RES1 0.0
2 Na2	4.9567  6.216  8.8433 Na	1 RES1 0.0
3 N1	2.8833  4.5506  1.4971 N.pl3	1 RES1 0.0
4 N2	3.3646  4.1557  -0.5341 N.pl3	1 RES1 0.0
5 O1	4.0385  1.8033  -6.5853 O.2	1 RES1 0.0
6 O2	5.0295  3.9809  -6.7032 O.2	1 RES1 0.0
7 O3	6.3312  2.1045  -5.9852 O.2	1 RES1 0.0
8 O4	5.6444  1.5568  7.3691 O.2	1 RES1 0.0
9 O5	6.5141  4.6284  8.2025 O.2	1 RES1 0.0
10 O6	2.9666  2.2456  10.3847 O.2	1 RES1 0.0
11 S1	5.0298  2.696  -6.0469 S.o2	1 RES1 0.0
12 S2	2.3455  4.6749  7.4196 S.o2	1 RES1 0.0
13 S3	5.5126  2.1333  5.9837 S.o	1 RES1 0.0
14 C1	3.4706  3.6227  0.6986 C.3	1 RES1 0.0
15 C2	2.7212  5.3823  -0.5156 C.2	1 RES1 0.0
16 H1	2.5343  5.9208  -1.2512 H	1 RES1 0.0
17 C3	2.4205  5.6429  0.7602 C.2	1 RES1 0.0
18 H2	1.9904  6.3996  1.0893 H	1 RES1 0.0
19 C4	2.7776  4.5241  2.9371 C.ar	1 RES1 0.0
20 C5	1.5916  4.0438  3.4968 C.ar	1 RES1 0.0
21 C6	1.5  4.1062  4.8853 C.ar	1 RES1 0.0
22 H3	0.7307  3.7949  5.3041 H	1 RES1 0.0
23 C7	2.5127  4.6135  5.6455 C.ar	1 RES1 0.0
24 C8	3.6867  5.0977  5.063 C.ar	1 RES1 0.0
25 H4	4.3617  5.4446  5.598 H	1 RES1 0.0
26 C9	3.8449  5.0597  3.6903 C.ar	1 RES1 0.0
27 C10	5.0823  5.6453  3.0234 C.3	1 RES1 0.0
28 H5	5.1877  5.2037  2.1558 H	1 RES1 0.0
29 C11	4.9043  7.143  2.7629 C.3	1 RES1 0.0
30 H6	4.096  7.2871  2.2667 H	1 RES1 0.0
31 H7	5.6531  7.4725  2.2614 H	1 RES1 0.0
32 H8	4.852  7.6094  3.6006 H	1 RES1 0.0
33 C12	6.3445  5.3985  3.8171 C.3	1 RES1 0.0
34 H9	7.0905  5.7983  3.363 H	1 RES1 0.0
35 H10	6.4901  4.4544  3.9015 H	1 RES1 0.0
36 H11	6.255  5.7882  4.6899 H	1 RES1 0.0
37 C13	0.4355  3.5615  2.6609 C.3	1 RES1 0.0
38 H12	0.7871  3.3018  1.7845 H	1 RES1 0.0
39 C14	-0.2756  2.3351  3.268 C.3	1 RES1 0.0
40 H13	-1.0024  2.0725  2.6996 H	1 RES1 0.0
41 H14	-0.6136  2.5604  4.1391 H	1 RES1 0.0
42 H15	0.3481  1.6097  3.3454 H	1 RES1 0.0
43 C15	-0.5759  4.6702  2.4444 C.3	1 RES1 0.0
44 H16	-1.3049  4.3388  1.9147 H	1 RES1 0.0
45 H17	-0.1553  5.4024  1.9886 H	1 RES1 0.0
46 H18	-0.9087  4.97  3.2944 H	1 RES1 0.0
47 C16	3.8518  3.6191  -1.7933 C.ar	1 RES1 0.0
48 C17	5.1217  3.9992  -2.2227 C.ar	1 RES1 0.0
49 C18	5.4645  3.6545  -3.5302 C.ar	1 RES1 0.0
50 H19	6.3103  3.8677  -3.8523 H	1 RES1 0.0
51 C19	4.5703  2.9998  -4.3538 C.ar	1 RES1 0.0
52 C20	3.3472  2.5942  -3.8804 C.ar	1 RES1 0.0
53 H20	2.7726  2.1156  -4.433 H	1 RES1 0.0
54 C21	2.9559  2.8991  -2.5641 C.ar	1 RES1 0.0
55 C22	1.5942  2.4819  -2.0713 C.3	1 RES1 0.0
56 H21	1.5785  2.6054  -1.0981 H	1 RES1 0.0
57 C23	1.3176  1.0172  -2.3529 C.3	1 RES1 0.0
58 H22	0.442  0.7891  -2.0326 H	1 RES1 0.0
59 H23	1.9734  0.4754  -1.9076 H	1 RES1 0.0
60 H24	1.3625  0.8596  -3.2997 H	1 RES1 0.0
61 C24	0.4938  3.3484  -2.6644 C.3	1 RES1 0.0
62 H25	-0.3584  3.058  -2.33 H	1 RES1 0.0
63 H26	0.5057  3.2698  -3.6217 H	1 RES1 0.0
64 H27	0.6395  4.2642  -2.4162 H	1 RES1 0.0
65 C25	6.0998  4.7585  -1.3287 C.3	1 RES1 0.0
66 H28	5.8159  4.632  -0.3995 H	1 RES1 0.0
67 C26	7.5223  4.2411  -1.4536 C.3	1 RES1 0.0
68 H29	7.5368  3.2996  -1.2653 H	1 RES1 0.0
69 H30	8.0854  4.7002  -0.8271 H	1 RES1 0.0
70 H31	7.8418  4.3954  -2.3441 H	1 RES1 0.0
71 C27	6.0557  6.2473  -1.6278 C.3	1 RES1 0.0
72 H32	5.1565  6.5672  -1.5293 H	1 RES1 0.0
73 H33	6.3547  6.4035  -2.5253 H	1 RES1 0.0
74 H34	6.6302  6.7133  -1.0137 H	1 RES1 0.0
75 C28	6.6428  1.232  4.9521 C.3	1 RES1 0.0
76 H35	7.5442  1.4703  5.1792 H	1 RES1 0.0
77 H36	6.4758  1.4462  4.0318 H	1 RES1 0.0
78 H37	6.5172  0.2897  5.0876 H	1 RES1 0.0
79 C29	4.007  1.4673  5.3129 C.3	1 RES1 0.0
80 H38	3.2556  1.8546  5.7669 H	1 RES1 0.0
81 H39	3.9977  0.515  5.4308 H	1 RES1 0.0
82 H40	3.9562  1.6747  4.3767 H	1 RES1 0.0
83 C30	8.667  3.3727  8.829 C.3	1 RES1 0.0
84 H41	8.4475  3.2443  9.7547 H	1 RES1 0.0
85 H42	9.6215  3.3938  8.727 H	1 RES1 0.0
86 H43	8.3042  2.6518  8.3116 H	1 RES1 0.0
87 C31	8.5544  4.8151  6.6592 C.3	1 RES1 0.0
88 H44	8.2614  5.5956  6.184 H	1 RES1 0.0
89 H45	8.2034  4.029  6.2333 H	1 RES1 0.0
90 H46	9.513  4.7796  6.6574 H	1 RES1 0.0
91 S4	7.99  4.8861  8.2754 S.o	1 RES1 0.0
92 O7	3.5043  4.2878  7.9773 O.3	1 RES1 0.0
93 O8	1.3897  5.6008  7.6975 O.2	1 RES1 0.0
94 O9	1.487  3.2287  7.664 O.2	1 RES1 0.0
95 C32	1.8481  2.7099  10.7191 C.2	1 RES1 0.0
96 C33	1.633  4.1375  11.0271 C.3	1 RES1 0.0
97 H47	2.4795  4.5873  11.064 H	1 RES1 0.0
98 H48	1.1897  4.2186  11.8753 H	1 RES1 0.0
99 H49	1.0887  4.5329  10.3425 H	1 RES1 0.0
100 C34	0.7297  1.8356  10.8581 C.3	1 RES1 0.0
101 H50	1.0167  0.9268  10.742 H	1 RES1 0.0
102 H51	0.0698  2.0495  10.1947 H	1 RES1 0.0
103 H52	0.3477  1.94  11.7345 H	1 RES1 0.0
104 O10	6.005  7.522  7.1871 O.2	1 RES1 0.0
105 C35	6.1979  9.9197  6.1295 C.3	1 RES1 0.0
106 H53	5.9146  9.6582  5.2513 H	1 RES1 0.0
107 H54	7.0469  10.364  6.0731 H	1 RES1 0.0
108 H55	5.5484  10.517  6.5096 H	1 RES1 0.0
109 S5	6.3325  8.635  7.0463 S.o	1 RES1 0.0
110 C36	6.4814  9.4638  8.3961 C.3	1 RES1 0.0
111 H56	6.6529  8.8612  9.1247 H	1 RES1 0.0
112 H57	5.6763  9.9527  8.5651 H	1 RES1 0.0
113 H58	7.2187  10.0785  8.3134 H	1 RES1 0.0
114 Na3	3.8173  0.2634  -8.3773 Na	1 RES1 0.0
115 Na4	6.6854  -0.2634  8.3773 Na	1 RES1 0.0
116 Na5	3.7175  3.5308  -8.7549 Na	1 RES1 0.0
117 O11	5.2778  4.4886  11.013 O.2	1 RES1 0.0
118 O12	6.2687  6.6662  10.8951 O.2	1 RES1 0.0
119 O13	6.0975  1.1285  10.2291 O.2	1 RES1 0.0
@<TRIPOS>BOND
1 1 8 1
1 1 9 1
1 1 10 1
1 1 92 1
1 1 117 un
1 1 119 un
1 2 9 1
1 2 92 1
1 2 104 1
1 2 117 un
1 2 118 un
1 3 14 1
1 3 17 1
1 3 19 1
1 4 14 1
1 4 15 1
1 4 47 1
1 5 11 2
1 5 114 un
1 5 116 un
1 6 11 1
1 6 116 un
1 7 11 2
1 8 13 2
1 8 115 un
1 9 91 2
1 10 95 2
1 11 51 1
1 12 23 1
1 12 92 1
1 12 93 2
1 12 94 2
1 13 75 1
1 13 79 1
1 15 16 1
1 15 17 2
1 17 18 1
1 19 20 ar
1 19 26 ar
1 20 21 ar
1 20 37 1
1 21 22 1
1 21 23 ar
1 23 24 ar
1 24 25 1
1 24 26 ar
1 26 27 1
1 27 28 1
1 27 29 1
1 27 33 1
1 29 30 1
1 29 31 1
1 29 32 1
1 33 34 1
1 33 35 1
1 33 36 1
1 37 38 1
1 37 39 1
1 37 43 1
1 39 40 1
1 39 41 1
1 39 42 1
1 43 44 1
1 43 45 1
1 43 46 1
1 47 48 ar
1 47 54 ar
1 48 49 ar
1 48 65 1
1 49 50 1
1 49 51 ar
1 51 52 ar
1 52 53 1
1 52 54 ar
1 54 55 1
1 55 56 1
1 55 57 1
1 55 61 1
1 57 58 1
1 57 59 1
1 57 60 1
1 61 62 1
1 61 63 1
1 61 64 1
1 65 66 1
1 65 67 1
1 65 71 1
1 67 68 1
1 67 69 1
1 67 70 1
1 71 72 1
1 71 73 1
1 71 74 1
1 75 76 1
1 75 77 1
1 75 78 1
1 79 80 1
1 79 81 1
1 79 82 1
1 83 84 1
1 83 85 1
1 83 86 1
1 83 91 1
1 87 88 1
1 87 89 1
1 87 90 1
1 87 91 1
1 95 96 1
1 95 100 1
1 96 97 1
1 96 98 1
1 96 99 1
1 100 101 1
1 100 102 1
1 100 103 1
1 104 109 2
1 105 106 1
1 105 107 1
1 105 108 1
1 105 109 1
1 109 110 1
1 110 111 1
1 110 112 1
1 110 113 1
1 115 119 un
@<TRIPOS>SUBSTRUCTURE
1 RES1 119

