@<TRIPOS>MOLECULE

85	91	1
SMALL
PartialCharges
****
Generated from molSimplify

@<TRIPOS>ATOM
1 N1	-0.3165  7.2478  2.3817 N.pl3	1 RES1 0.0
2 N2	1.584  7.9509  3.0603 N.pl3	1 RES1 0.0
3 C1	0.9478  7.4664  1.9683 C.3	1 RES1 0.0
4 C2	0.721  8.0064  4.1493 C.2	1 RES1 0.0
5 H1	0.9429  8.287  5.0286 H	1 RES1 0.0
6 C3	-0.4731  7.5904  3.7328 C.2	1 RES1 0.0
7 H2	-1.2691  7.5366  4.2466 H	1 RES1 0.0
8 C4	-1.4225  6.8041  1.5549 C.ar	1 RES1 0.0
9 C5	-2.0146  7.7764  0.698 C.ar	1 RES1 0.0
10 C6	-1.5367  9.0895  0.5348 C.ar	1 RES1 0.0
11 H3	-0.7667  9.3685  1.0141 H	1 RES1 0.0
12 C7	-2.1549  9.9541  -0.2891 C.ar	1 RES1 0.0
13 H4	-1.8173  10.8383  -0.3805 H	1 RES1 0.0
14 C8	-3.2985  9.5626  -1.0186 C.ar	1 RES1 0.0
15 H5	-3.7291  10.1825  -1.5953 H	1 RES1 0.0
16 C9	-3.7748  8.3114  -0.8958 C.ar	1 RES1 0.0
17 H6	-4.5334  8.0553  -1.4081 H	1 RES1 0.0
18 C10	-3.1892  7.3702  -0.0389 C.ar	1 RES1 0.0
19 C11	-3.703  6.0814  0.1303 C.ar	1 RES1 0.0
20 H7	-4.4828  5.8172  -0.343 H	1 RES1 0.0
21 C12	-3.0978  5.2087  0.9602 C.ar	1 RES1 0.0
22 H8	-3.4714  4.3409  1.0575 H	1 RES1 0.0
23 C13	-1.9184  5.5333  1.7016 C.ar	1 RES1 0.0
24 C14	2.9428  8.3995  3.1082 C.ar	1 RES1 0.0
25 C15	3.9771  7.4191  3.1112 C.ar	1 RES1 0.0
26 C16	3.7226  6.0325  3.0378 C.ar	1 RES1 0.0
27 H9	2.8287  5.7209  2.9689 H	1 RES1 0.0
28 C17	4.7601  5.1304  3.0678 C.ar	1 RES1 0.0
29 H10	4.5741  4.2006  2.9959 H	1 RES1 0.0
30 C18	6.0847  5.5562  3.2011 C.ar	1 RES1 0.0
31 H11	6.7927  4.9232  3.2325 H	1 RES1 0.0
32 C19	6.3506  6.8857  3.2835 C.ar	1 RES1 0.0
33 H12	7.2543  7.1679  3.3703 H	1 RES1 0.0
34 C20	5.3278  7.871  3.2445 C.ar	1 RES1 0.0
35 C21	5.5839  9.2315  3.3509 C.ar	1 RES1 0.0
36 H13	6.4827  9.5333  3.4078 H	1 RES1 0.0
37 C22	4.5774  10.1401  3.3748 C.ar	1 RES1 0.0
38 H14	4.7895  11.0618  3.4767 H	1 RES1 0.0
39 C23	3.2087  9.7519  3.2535 C.ar	1 RES1 0.0
40 C24	-1.2806  4.4681  2.5839 C.3	1 RES1 0.0
41 H15	-0.336  4.7519  2.7562 H	1 RES1 0.0
42 C25	-1.2251  3.1256  1.9218 C.3	1 RES1 0.0
43 H16	-2.1566  2.8189  1.787 H	1 RES1 0.0
44 H17	-0.8254  3.2479  1.0246 H	1 RES1 0.0
45 C26	-0.4845  2.0326  2.6019 C.3	1 RES1 0.0
46 H18	-1.1582  1.5905  3.1771 H	1 RES1 0.0
47 H19	-0.279  1.3833  1.8829 H	1 RES1 0.0
48 C27	0.7422  2.0815  3.4288 C.3	1 RES1 0.0
49 H20	1.5106  2.1827  2.8116 H	1 RES1 0.0
50 H21	0.8385  1.199  3.8662 H	1 RES1 0.0
51 C28	0.8874  3.1125  4.4833 C.3	1 RES1 0.0
52 H22	1.1011  3.9608  4.0204 H	1 RES1 0.0
53 H23	1.69  2.8678  5.0091 H	1 RES1 0.0
54 C29	-0.1794  3.4241  5.4644 C.3	1 RES1 0.0
55 H24	0.1321  4.2218  5.9603 H	1 RES1 0.0
56 H25	-0.1794  2.6769  6.1131 H	1 RES1 0.0
57 C30	-1.6052  3.6802  5.1409 C.3	1 RES1 0.0
58 H26	-2.0456  2.796  5.0705 H	1 RES1 0.0
59 H27	-2.0  4.1337  5.9273 H	1 RES1 0.0
60 C31	-2.0114  4.4567  3.9515 C.3	1 RES1 0.0
61 H28	-2.0538  5.4012  4.2451 H	1 RES1 0.0
62 H29	-2.9445  4.1859  3.7568 H	1 RES1 0.0
63 C32	2.1256  10.8122  3.3044 C.3	1 RES1 0.0
64 H30	1.2414  10.3571  3.1981 H	1 RES1 0.0
65 C33	2.1484  11.4843  4.6661 C.3	1 RES1 0.0
66 H31	2.1484  10.7665  5.3461 H	1 RES1 0.0
67 H32	3.0163  11.9557  4.7454 H	1 RES1 0.0
68 C34	1.0718  12.4679  5.06 C.3	1 RES1 0.0
69 H33	0.2088  11.9835  5.0345 H	1 RES1 0.0
70 H34	1.2333  12.7175  6.0037 H	1 RES1 0.0
71 C35	0.8874  13.7469  4.2871 C.3	1 RES1 0.0
72 H35	1.7602  13.9899  3.8871 H	1 RES1 0.0
73 H36	0.6493  14.4614  4.9297 H	1 RES1 0.0
74 C36	-0.1419  13.7469  3.1891 C.3	1 RES1 0.0
75 H37	0.0326  14.5299  2.6079 H	1 RES1 0.0
76 H38	-1.031  13.8823  3.604 H	1 RES1 0.0
77 C37	-0.2202  12.525  2.3128 C.3	1 RES1 0.0
78 H39	-0.9967  12.6294  1.7076 H	1 RES1 0.0
79 H40	-0.4013  11.742  2.8925 H	1 RES1 0.0
80 C38	0.9935  12.2118  1.4695 C.3	1 RES1 0.0
81 H41	0.739  11.4843  0.8493 H	1 RES1 0.0
82 H42	1.1762  13.0112  0.9137 H	1 RES1 0.0
83 C39	2.3001  11.8105  2.1136 C.3	1 RES1 0.0
84 H43	2.7585  12.6246  2.4416 H	1 RES1 0.0
85 H44	2.8792  11.3946  1.4275 H	1 RES1 0.0
@<TRIPOS>BOND
1 1 3 1
1 1 6 1
1 1 8 1
1 2 3 1
1 2 4 1
1 2 24 1
1 4 5 1
1 4 6 2
1 6 7 1
1 8 9 ar
1 8 23 ar
1 9 10 ar
1 9 18 ar
1 10 11 1
1 10 12 ar
1 12 13 1
1 12 14 ar
1 14 15 1
1 14 16 ar
1 16 17 1
1 16 18 ar
1 18 19 ar
1 19 20 1
1 19 21 ar
1 21 22 1
1 21 23 ar
1 23 40 1
1 24 25 ar
1 24 39 ar
1 25 26 ar
1 25 34 ar
1 26 27 1
1 26 28 ar
1 28 29 1
1 28 30 ar
1 30 31 1
1 30 32 ar
1 32 33 1
1 32 34 ar
1 34 35 ar
1 35 36 1
1 35 37 ar
1 37 38 1
1 37 39 ar
1 39 63 1
1 40 41 1
1 40 42 1
1 40 60 1
1 42 43 1
1 42 44 1
1 42 45 1
1 45 46 1
1 45 47 1
1 45 48 1
1 48 49 1
1 48 50 1
1 48 51 1
1 51 52 1
1 51 53 1
1 51 54 1
1 54 55 1
1 54 56 1
1 54 57 1
1 57 58 1
1 57 59 1
1 57 60 1
1 60 61 1
1 60 62 1
1 63 64 1
1 63 65 1
1 63 83 1
1 65 66 1
1 65 67 1
1 65 68 1
1 68 69 1
1 68 70 1
1 68 71 1
1 71 72 1
1 71 73 1
1 71 74 1
1 74 75 1
1 74 76 1
1 74 77 1
1 77 78 1
1 77 79 1
1 77 80 1
1 80 81 1
1 80 82 1
1 80 83 1
1 83 84 1
1 83 85 1
@<TRIPOS>SUBSTRUCTURE
1 RES1 85

