@<TRIPOS>MOLECULE

39	40	1
SMALL
PartialCharges
****
Generated from molSimplify

@<TRIPOS>ATOM
1 O1	3.9379  7.7605  6.2774 O.2	1 RES1 0.0
2 O2	4.0468  9.8539  1.8902 O.2	1 RES1 0.0
3 O3	2.2424  10.5601  0.9501 O.2	1 RES1 0.0
4 N1	3.2585  5.3278  9.8781 N.pl3	1 RES1 0.0
5 H1	3.8606  4.8504  9.5665 H	1 RES1 0.0
6 N2	2.772  5.8312  7.7287 N.pl3	1 RES1 0.0
7 H2	3.4334  5.4433  7.4901 H	1 RES1 0.0
8 N3	2.0741  6.5697  6.7804 N.am	1 RES1 0.0
9 H3	1.3827  6.1968  6.493 H	1 RES1 0.0
10 N4	2.8281  9.998  1.8572 N.pl3	1 RES1 0.0
11 C1	2.5423  6.0251  9.0361 C.2	1 RES1 0.0
12 C2	3.0966  5.3718  11.3411 C.3	1 RES1 0.0
13 H4	2.7107  6.2601  11.5918 H	1 RES1 0.0
14 C3	2.1418  4.2775  11.8153 C.3	1 RES1 0.0
15 H5	1.9225  4.4265  12.7693 H	1 RES1 0.0
16 H6	1.3  4.3315  11.2971 H	1 RES1 0.0
17 C4	2.7453  2.8892  11.6495 C.3	1 RES1 0.0
18 H7	2.1125  2.2129  11.9996 H	1 RES1 0.0
19 H8	2.8873  2.7059  10.6875 H	1 RES1 0.0
20 C5	4.0692  2.7699  12.3877 C.3	1 RES1 0.0
21 H9	3.9209  2.8881  13.3587 H	1 RES1 0.0
22 H10	4.4522  1.8681  12.2418 H	1 RES1 0.0
23 C6	5.0382  3.8202  11.8893 C.3	1 RES1 0.0
24 H11	5.2529  3.6419  10.9392 H	1 RES1 0.0
25 H12	5.8791  3.7605  12.4087 H	1 RES1 0.0
26 C7	4.464  5.2265  12.0203 C.3	1 RES1 0.0
27 H13	5.0959  5.8729  11.616 H	1 RES1 0.0
28 H14	4.3737  5.4502  12.9806 H	1 RES1 0.0
29 C8	2.7678  7.496  6.0605 C.2	1 RES1 0.0
30 C9	1.9808  8.1725  4.9822 C.ar	1 RES1 0.0
31 C10	2.7209  8.7954  3.9833 C.ar	1 RES1 0.0
32 H15	3.6707  8.7824  4.0008 H	1 RES1 0.0
33 C11	2.0354  9.4358  2.9609 C.ar	1 RES1 0.0
34 C12	0.66  9.525  2.9224 C.ar	1 RES1 0.0
35 H16	0.2222  9.9908  2.2204 H	1 RES1 0.0
36 C13	-0.0658  8.9178  3.9351 C.ar	1 RES1 0.0
37 H17	-1.0145  8.971  3.9321 H	1 RES1 0.0
38 C14	0.5848  8.2305  4.9569 C.ar	1 RES1 0.0
39 H18	0.0795  7.8005  5.6371 H	1 RES1 0.0
@<TRIPOS>BOND
1 1 29 2
1 2 10 2
1 3 10 2
1 4 5 1
1 4 11 1
1 4 12 1
1 6 7 1
1 6 8 1
1 6 11 1
1 8 9 1
1 8 29 am
1 10 33 1
1 12 13 1
1 12 14 1
1 12 26 1
1 14 15 1
1 14 16 1
1 14 17 1
1 17 18 1
1 17 19 1
1 17 20 1
1 20 21 1
1 20 22 1
1 20 23 1
1 23 24 1
1 23 25 1
1 23 26 1
1 26 27 1
1 26 28 1
1 29 30 1
1 30 31 ar
1 30 38 ar
1 31 32 1
1 31 33 ar
1 33 34 ar
1 34 35 1
1 34 36 ar
1 36 37 1
1 36 38 ar
1 38 39 1
@<TRIPOS>SUBSTRUCTURE
1 RES1 39

