@<TRIPOS>MOLECULE

39	41	1
SMALL
PartialCharges
****
Generated from molSimplify

@<TRIPOS>ATOM
1 C1	5.5267  0.6612  7.7547 C.ar	1 RES1 0.0
2 H1	6.2024  0.6348  8.4221 H	1 RES1 0.0
3 C2	4.3306  0.0102  7.9594 C.ar	1 RES1 0.0
4 H2	4.1813  -0.461  8.7704 H	1 RES1 0.0
5 C3	5.74  1.3512  6.5795 C.ar	1 RES1 0.0
6 H3	6.5696  1.7898  6.4279 H	1 RES1 0.0
7 C4	4.738  1.4005  5.6169 C.ar	1 RES1 0.0
8 H4	4.8783  1.9017  4.8219 H	1 RES1 0.0
9 C5	3.545  0.7338  5.7964 C.ar	1 RES1 0.0
10 C6	3.3535  0.0401  6.9925 C.ar	1 RES1 0.0
11 H5	2.5353  -0.4193  7.1405 H	1 RES1 0.0
12 C7	2.4162  0.7291  4.7935 C.3	1 RES1 0.0
13 H6	1.8734  -0.0886  4.9296 H	1 RES1 0.0
14 H7	1.8323  1.5092  4.9682 H	1 RES1 0.0
15 C8	4.1668  0.5517  2.9647 C.2	1 RES1 0.0
16 H8	4.9233  0.3513  3.5044 H	1 RES1 0.0
17 C9	4.1304  0.6792  1.6352 C.2	1 RES1 0.0
18 H9	4.8377  0.4969  1.0277 H	1 RES1 0.0
19 C10	2.0582  1.1494  2.3704 C.3	1 RES1 0.0
20 C11	2.2408  0.9447  -0.117 C.3	1 RES1 0.0
21 C12	3.0107  1.9893  -0.9306 C.2	1 RES1 0.0
22 C13	3.3355  2.5388  -3.3433 C.ar	1 RES1 0.0
23 C14	3.1906  1.9668  -4.604 C.ar	1 RES1 0.0
24 H10	2.8191  1.0973  -4.6903 H	1 RES1 0.0
25 C15	3.5864  2.6679  -5.7353 C.ar	1 RES1 0.0
26 H11	3.5037  2.2667  -6.5928 H	1 RES1 0.0
27 C16	4.1003  3.9364  -5.6209 C.ar	1 RES1 0.0
28 H12	4.3476  4.426  -6.396 H	1 RES1 0.0
29 C17	4.2517  4.4903  -4.3752 C.ar	1 RES1 0.0
30 H13	4.6247  5.36  -4.2955 H	1 RES1 0.0
31 C18	3.8701  3.8048  -3.2186 C.ar	1 RES1 0.0
32 H14	3.9774  4.2022  -2.3624 H	1 RES1 0.0
33 N1	2.8568  0.7733  3.3933 N.pl3	1 RES1 0.0
34 N2	2.8521  1.1313  1.3162 N.pl3	1 RES1 0.0
35 N3	2.9012  1.7627  -2.2528 N.am	1 RES1 0.0
36 H15	2.4947  1.0124  -2.4688 H	1 RES1 0.0
37 O1	3.6254  2.8973  -0.4217 O.2	1 RES1 0.0
38 H16	1.4213  1.3721  -0.1835 H	1 RES1 0.0
39 H17	2.5063  -0.0409  -0.4573 H	1 RES1 0.0
@<TRIPOS>BOND
1 1 2 1
1 1 3 ar
1 1 5 ar
1 3 4 1
1 3 10 ar
1 5 6 1
1 5 7 ar
1 7 8 1
1 7 9 ar
1 9 10 ar
1 9 12 1
1 10 11 1
1 12 13 1
1 12 14 1
1 12 33 1
1 15 16 1
1 15 17 2
1 15 33 1
1 17 18 1
1 17 34 1
1 19 33 un
1 19 34 un
1 20 21 1
1 20 34 1
1 20 38 1
1 20 39 1
1 21 35 am
1 21 37 2
1 22 23 ar
1 22 31 ar
1 22 35 1
1 23 24 1
1 23 25 ar
1 25 26 1
1 25 27 ar
1 27 28 1
1 27 29 ar
1 29 30 1
1 29 31 ar
1 31 32 1
1 35 36 1
@<TRIPOS>SUBSTRUCTURE
1 RES1 39

