@<TRIPOS>MOLECULE

39	41	1
SMALL
PartialCharges
****
Generated from molSimplify

@<TRIPOS>ATOM
1 O1	8.1277  1.4591  6.1841 O.3	1 RES1 0.0
2 H1	8.2061  2.1019  5.6808 H	1 RES1 0.0
3 N1	6.3078  4.1656  3.3506 N.pl3	1 RES1 0.0
4 N2	6.3745  2.1193  4.0144 N.pl3	1 RES1 0.0
5 C1	7.0484  3.0435  3.3108 C.3	1 RES1 0.0
6 C2	5.2029  2.6483  4.4834 C.2	1 RES1 0.0
7 H2	4.5615  2.2056  4.9909 H	1 RES1 0.0
8 C3	5.1508  3.9253  4.0747 C.2	1 RES1 0.0
9 H3	4.4681  4.5333  4.2448 H	1 RES1 0.0
10 C4	6.7065  5.4313  2.7293 C.3	1 RES1 0.0
11 H4	6.0971  5.6336  2.0024 H	1 RES1 0.0
12 H5	7.5956  5.3327  2.3535 H	1 RES1 0.0
13 C5	6.7106  6.5893  3.7058 C.ar	1 RES1 0.0
14 C6	7.0673  6.4342  5.0334 C.ar	1 RES1 0.0
15 H6	7.2845  5.5918  5.3612 H	1 RES1 0.0
16 C7	7.0998  7.5327  5.87 C.ar	1 RES1 0.0
17 H7	7.341  7.4264  6.7629 H	1 RES1 0.0
18 C8	6.7793  8.7855  5.3941 C.ar	1 RES1 0.0
19 H8	6.7899  9.5174  5.9674 H	1 RES1 0.0
20 C9	6.4444  8.9537  4.0693 C.ar	1 RES1 0.0
21 H9	6.2522  9.802  3.7401 H	1 RES1 0.0
22 C10	6.3936  7.8509  3.2258 C.ar	1 RES1 0.0
23 H10	6.1464  7.9587  2.3357 H	1 RES1 0.0
24 C11	6.8764  0.7295  4.2503 C.3	1 RES1 0.0
25 H11	7.6982  0.7172  3.7168 H	1 RES1 0.0
26 C12	7.3698  0.4664  5.5573 C.3	1 RES1 0.0
27 H12	6.5493  0.4621  6.0922 H	1 RES1 0.0
28 C13	7.8742  -0.9283  5.7397 C.3	1 RES1 0.0
29 H13	7.988  -1.0939  6.6888 H	1 RES1 0.0
30 H14	8.748  -0.9975  5.3242 H	1 RES1 0.0
31 C14	6.9859  -1.9982  5.1692 C.3	1 RES1 0.0
32 H15	7.464  -2.8423  5.1733 H	1 RES1 0.0
33 H16	6.2042  -2.0964  5.7343 H	1 RES1 0.0
34 C15	6.5494  -1.696  3.7881 C.3	1 RES1 0.0
35 H17	5.8473  -2.3203  3.5467 H	1 RES1 0.0
36 H18	7.2971  -1.855  3.1915 H	1 RES1 0.0
37 C16	6.034  -0.2759  3.5453 C.3	1 RES1 0.0
38 H19	6.0397  -0.0896  2.5935 H	1 RES1 0.0
39 H20	5.1191  -0.2072  3.8594 H	1 RES1 0.0
@<TRIPOS>BOND
1 1 2 1
1 1 26 1
1 3 5 1
1 3 8 1
1 3 10 1
1 4 5 1
1 4 6 1
1 4 24 1
1 6 7 1
1 6 8 2
1 8 9 1
1 10 11 1
1 10 12 1
1 10 13 1
1 13 14 ar
1 13 22 ar
1 14 15 1
1 14 16 ar
1 16 17 1
1 16 18 ar
1 18 19 1
1 18 20 ar
1 20 21 1
1 20 22 ar
1 22 23 1
1 24 25 1
1 24 26 1
1 24 37 1
1 26 27 1
1 26 28 1
1 28 29 1
1 28 30 1
1 28 31 1
1 31 32 1
1 31 33 1
1 31 34 1
1 34 35 1
1 34 36 1
1 34 37 1
1 37 38 1
1 37 39 1
@<TRIPOS>SUBSTRUCTURE
1 RES1 39

