@<TRIPOS>MOLECULE

23	23	1
SMALL
PartialCharges
****
Generated from molSimplify

@<TRIPOS>ATOM
1 N1	4.9068  11.8463  4.9748 N.pl3	1 RES1 0.0
2 N2	5.26  14.0021  4.8702 N.2	1 RES1 0.0
3 N3	4.7496  13.6221  6.1003 N.pl3	1 RES1 0.0
4 C1	4.5044  12.3122  6.1865 C.3	1 RES1 0.0
5 C2	5.3329  12.8795  4.2403 C.2	1 RES1 0.0
6 H1	5.6489  12.7953  3.3694 H	1 RES1 0.0
7 C3	4.8893  10.4676  4.5344 C.3	1 RES1 0.0
8 H2	4.9761  10.4349  3.5798 H	1 RES1 0.0
9 H3	4.0605  10.0585  4.7951 H	1 RES1 0.0
10 H4	5.6197  9.9931  4.9391 H	1 RES1 0.0
11 C4	4.5687  14.7344  7.0697 C.3	1 RES1 0.0
12 C5	4.3086  14.2032  8.4536 C.3	1 RES1 0.0
13 H5	4.9585  13.5293  8.6665 H	1 RES1 0.0
14 H6	3.4284  13.8216  8.4905 H	1 RES1 0.0
15 H7	4.3726  14.9218  9.0884 H	1 RES1 0.0
16 C6	5.9178  15.4547  7.1595 C.3	1 RES1 0.0
17 H8	6.5584  14.884  7.5888 H	1 RES1 0.0
18 H9	5.8162  16.2627  7.6688 H	1 RES1 0.0
19 H10	6.2237  15.6713  6.275 H	1 RES1 0.0
20 C7	3.5139  15.6387  6.5543 C.3	1 RES1 0.0
21 H11	3.7829  15.9911  5.703 H	1 RES1 0.0
22 H12	3.3816  16.3607  7.1718 H	1 RES1 0.0
23 H13	2.6938  15.1487  6.4534 H	1 RES1 0.0
@<TRIPOS>BOND
1 1 4 1
1 1 5 1
1 1 7 1
1 2 3 1
1 2 5 2
1 3 4 1
1 3 11 1
1 5 6 1
1 7 8 1
1 7 9 1
1 7 10 1
1 11 12 1
1 11 16 1
1 11 20 1
1 12 13 1
1 12 14 1
1 12 15 1
1 16 17 1
1 16 18 1
1 16 19 1
1 20 21 1
1 20 22 1
1 20 23 1
@<TRIPOS>SUBSTRUCTURE
1 RES1 23

