@<TRIPOS>MOLECULE

38	39	1
SMALL
PartialCharges
****
Generated from molSimplify

@<TRIPOS>ATOM
1 O1	2.4315  5.8716  0.961 O.3	1 RES1 0.0
2 N1	3.5066  1.8142  4.1448 N.pl3	1 RES1 0.0
3 N2	2.2151  2.9992  2.8939 N.pl3	1 RES1 0.0
4 C1	3.0095  1.9182  2.8845 C.3	1 RES1 0.0
5 C2	2.9875  2.8779  4.902 C.2	1 RES1 0.0
6 H1	3.1637  3.0468  5.7987 H	1 RES1 0.0
7 C3	2.2144  3.5862  4.126 C.2	1 RES1 0.0
8 H2	1.7466  4.3531  4.369 H	1 RES1 0.0
9 C4	4.4313  0.7907  4.728 C.3	1 RES1 0.0
10 C5	4.87  -0.2448  3.7169 C.3	1 RES1 0.0
11 H3	4.1086  -0.7571  3.4331 H	1 RES1 0.0
12 H4	5.5189  -0.8286  4.1166 H	1 RES1 0.0
13 H5	5.2602  0.195  2.9581 H	1 RES1 0.0
14 C6	3.7026  0.1571  5.863 C.3	1 RES1 0.0
15 H6	3.4041  0.8373  6.4712 H	1 RES1 0.0
16 H7	4.2904  -0.4484  6.3223 H	1 RES1 0.0
17 H8	2.9454  -0.3271  5.5259 H	1 RES1 0.0
18 C7	5.6667  1.4991  5.2453 C.3	1 RES1 0.0
19 H9	5.9357  2.1728  4.6183 H	1 RES1 0.0
20 H10	6.3769  0.8633  5.3582 H	1 RES1 0.0
21 H11	5.4692  1.9096  6.0903 H	1 RES1 0.0
22 C8	1.4082  3.4119  1.6899 C.3	1 RES1 0.0
23 H12	2.0084  3.5158  0.9343 H	1 RES1 0.0
24 H13	0.784  2.7013  1.4751 H	1 RES1 0.0
25 C9	0.649  4.6715  1.8718 C.ar	1 RES1 0.0
26 C10	1.125  5.889  1.4297 C.ar	1 RES1 0.0
27 C11	2.9365  7.0588  0.3715 C.3	1 RES1 0.0
28 H14	2.3437  7.3469  -0.3261 H	1 RES1 0.0
29 H15	3.8071  6.8887  0.0031 H	1 RES1 0.0
30 H16	3.0005  7.7455  1.0409 H	1 RES1 0.0
31 C12	0.3674  7.0295  1.4767 C.ar	1 RES1 0.0
32 H17	0.7039  7.8375  1.1616 H	1 RES1 0.0
33 C13	-0.9091  6.9494  2.0019 C.ar	1 RES1 0.0
34 H18	-1.4298  7.7195  2.0301 H	1 RES1 0.0
35 C14	-1.4293  5.7958  2.48 C.ar	1 RES1 0.0
36 H19	-2.2849  5.7633  2.8453 H	1 RES1 0.0
37 C15	-0.6479  4.6835  2.4016 C.ar	1 RES1 0.0
38 H20	-0.9955  3.8809  2.7199 H	1 RES1 0.0
@<TRIPOS>BOND
1 1 26 1
1 1 27 1
1 2 4 1
1 2 5 1
1 2 9 1
1 3 4 1
1 3 7 1
1 3 22 1
1 5 6 1
1 5 7 2
1 7 8 1
1 9 10 1
1 9 14 1
1 9 18 1
1 10 11 1
1 10 12 1
1 10 13 1
1 14 15 1
1 14 16 1
1 14 17 1
1 18 19 1
1 18 20 1
1 18 21 1
1 22 23 1
1 22 24 1
1 22 25 1
1 25 26 ar
1 25 37 ar
1 26 31 ar
1 27 28 1
1 27 29 1
1 27 30 1
1 31 32 1
1 31 33 ar
1 33 34 1
1 33 35 ar
1 35 36 1
1 35 37 ar
1 37 38 1
@<TRIPOS>SUBSTRUCTURE
1 RES1 38

