@<TRIPOS>MOLECULE

50	52	1
SMALL
PartialCharges
****
Generated from molSimplify

@<TRIPOS>ATOM
1 C1	10.2909  5.4722  17.4062 C.ar	1 RES1 0.0
2 C2	9.7851  7.0656  18.9406 C.ar	1 RES1 0.0
3 C3	10.524  6.4312  19.9121 C.ar	1 RES1 0.0
4 H1	10.6248  6.7829  20.7873 H	1 RES1 0.0
5 C4	11.1098  5.2399  19.515 C.ar	1 RES1 0.0
6 H2	11.6157  4.7551  20.1559 H	1 RES1 0.0
7 C5	8.5365  8.6707  20.4078 C.3	1 RES1 0.0
8 C6	8.1441  10.2098  18.8136 C.2	1 RES1 0.0
9 H3	7.8305  11.0036  18.3932 H	1 RES1 0.0
10 C7	8.8296  9.2284  18.2284 C.2	1 RES1 0.0
11 H4	9.0969  9.1847  17.316 H	1 RES1 0.0
12 C8	7.2212  10.6975  21.0646 C.ar	1 RES1 0.0
13 C9	5.844  10.4974  21.1561 C.ar	1 RES1 0.0
14 C10	5.127  11.3718  21.9645 C.ar	1 RES1 0.0
15 H5	4.1884  11.2523  22.0536 H	1 RES1 0.0
16 C11	5.7363  12.4105  22.6439 C.ar	1 RES1 0.0
17 C12	7.0935  12.5932  22.4946 C.ar	1 RES1 0.0
18 H6	7.512  13.3161  22.9451 H	1 RES1 0.0
19 C13	7.869  11.7556  21.7065 C.ar	1 RES1 0.0
20 C14	5.1531  9.414  20.3912 C.3	1 RES1 0.0
21 H7	5.1808  9.621  19.4333 H	1 RES1 0.0
22 H8	4.2207  9.3509  20.686 H	1 RES1 0.0
23 H9	5.6055  8.56  20.5543 H	1 RES1 0.0
24 C15	9.3369  12.017  21.5248 C.3	1 RES1 0.0
25 H10	9.5831  12.839  21.9962 H	1 RES1 0.0
26 H11	9.5354  12.1171  20.5712 H	1 RES1 0.0
27 H12	9.8493  11.265  21.8882 H	1 RES1 0.0
28 C16	4.9331  13.3199  23.5296 C.3	1 RES1 0.0
29 H13	5.1731  13.1606  24.4646 H	1 RES1 0.0
30 H14	3.9776  13.1392  23.4043 H	1 RES1 0.0
31 H15	5.1224  14.2527  23.2963 H	1 RES1 0.0
32 C17	9.4877  5.7627  15.0921 C.3	1 RES1 0.0
33 H16	9.8585  5.5217  14.206 H	1 RES1 0.0
34 H17	9.6369  6.7314  15.2292 H	1 RES1 0.0
35 C18	8.0121  5.4877  15.0972 C.3	1 RES1 0.0
36 H18	7.8567  4.5336  14.9354 H	1 RES1 0.0
37 H19	7.5797  6.0124  14.3918 H	1 RES1 0.0
38 H20	7.6366  5.7384  15.9653 H	1 RES1 0.0
39 C19	10.7079  3.6601  15.8255 C.3	1 RES1 0.0
40 H21	11.6357  3.5843  16.1612 H	1 RES1 0.0
41 H22	10.7356  3.5581  14.8409 H	1 RES1 0.0
42 C20	9.8985  2.5282  16.3992 C.3	1 RES1 0.0
43 H23	9.857  2.6185  17.3734 H	1 RES1 0.0
44 H24	10.3217  1.6751  16.1679 H	1 RES1 0.0
45 H25	8.9922  2.5544  16.0295 H	1 RES1 0.0
46 N1	11.0044  4.7357  18.2902 N.ar	1 RES1 0.0
47 N2	9.6631  6.6401  17.6929 N.ar	1 RES1 0.0
48 N3	9.0769  8.2811  19.2141 N.pl3	1 RES1 0.0
49 N4	7.9696  9.8629  20.1495 N.pl3	1 RES1 0.0
50 N5	10.207  5.0068  16.1409 N.pl3	1 RES1 0.0
@<TRIPOS>BOND
1 1 46 ar
1 1 47 ar
1 1 50 1
1 2 3 ar
1 2 47 ar
1 2 48 1
1 3 4 1
1 3 5 ar
1 5 6 1
1 5 46 ar
1 7 48 1
1 7 49 1
1 8 9 1
1 8 10 2
1 8 49 1
1 10 11 1
1 10 48 1
1 12 13 ar
1 12 19 ar
1 12 49 1
1 13 14 ar
1 13 20 1
1 14 15 1
1 14 16 ar
1 16 17 ar
1 16 28 1
1 17 18 1
1 17 19 ar
1 19 24 1
1 20 21 1
1 20 22 1
1 20 23 1
1 24 25 1
1 24 26 1
1 24 27 1
1 28 29 1
1 28 30 1
1 28 31 1
1 32 33 1
1 32 34 1
1 32 35 1
1 32 50 1
1 35 36 1
1 35 37 1
1 35 38 1
1 39 40 1
1 39 41 1
1 39 42 1
1 39 50 1
1 42 43 1
1 42 44 1
1 42 45 1
@<TRIPOS>SUBSTRUCTURE
1 RES1 50

