@<TRIPOS>MOLECULE

58	61	1
SMALL
PartialCharges
****
Generated from molSimplify

@<TRIPOS>ATOM
1 O1	3.0615  0.7625  13.961 O.3	1 RES1 0.0
2 N1	3.578  3.5113  10.2559 N.pl3	1 RES1 0.0
3 N2	4.0065  1.7815  11.4753 N.pl3	1 RES1 0.0
4 C1	4.5449  2.9481  11.0194 C.3	1 RES1 0.0
5 C2	2.452  2.6801  10.1994 C.2	1 RES1 0.0
6 C3	2.7027  1.5995  10.9625 C.2	1 RES1 0.0
7 C4	1.2751  2.9925  9.335 C.3	1 RES1 0.0
8 C5	1.8984  0.3597  11.1969 C.3	1 RES1 0.0
9 C6	3.6959  4.8055  9.5841 C.3	1 RES1 0.0
10 C7	4.3884  5.8761  10.4084 C.ar	1 RES1 0.0
11 C8	5.4448  6.6185  9.8552 C.ar	1 RES1 0.0
12 C9	6.0682  7.6089  10.6236 C.ar	1 RES1 0.0
13 C10	5.6752  7.8826  11.9298 C.ar	1 RES1 0.0
14 C11	4.5872  7.1889  12.4342 C.ar	1 RES1 0.0
15 C12	3.9349  6.1857  11.7121 C.ar	1 RES1 0.0
16 C13	5.928  6.3605  8.4445 C.3	1 RES1 0.0
17 C14	6.4028  8.9116  12.7633 C.3	1 RES1 0.0
18 C15	2.7746  5.4619  12.3495 C.3	1 RES1 0.0
19 C16	4.7784  0.8786  12.2648 C.ar	1 RES1 0.0
20 C17	4.341  0.4457  13.5257 C.ar	1 RES1 0.0
21 C18	5.148  -0.3827  14.2823 C.ar	1 RES1 0.0
22 C19	6.3853  -0.7725  13.8114 C.ar	1 RES1 0.0
23 C20	6.8243  -0.364  12.5702 C.ar	1 RES1 0.0
24 C21	6.0226  0.4644  11.7919 C.ar	1 RES1 0.0
25 C22	2.8657  1.9878  14.5857 C.ar	1 RES1 0.0
26 C23	1.5629  2.4794  14.5463 C.ar	1 RES1 0.0
27 C24	1.2402  3.6547  15.2221 C.ar	1 RES1 0.0
28 C25	2.2448  4.3498  15.894 C.ar	1 RES1 0.0
29 C26	3.5329  3.8481  15.9255 C.ar	1 RES1 0.0
30 C27	3.8579  2.6701  15.2714 C.ar	1 RES1 0.0
31 H1	0.5633  2.3404  9.5045 H	1 RES1 0.0
32 H2	1.541  2.9495  8.3933 H	1 RES1 0.0
33 H3	0.9489  3.894  9.5419 H	1 RES1 0.0
34 H4	1.1255  0.354  10.594 H	1 RES1 0.0
35 H5	1.5884  0.344  12.1269 H	1 RES1 0.0
36 H6	2.4544  -0.4285  11.0235 H	1 RES1 0.0
37 H7	2.7892  5.1237  9.3469 H	1 RES1 0.0
38 H8	4.1994  4.6794  8.74 H	1 RES1 0.0
39 H9	6.7796  8.109  10.2413 H	1 RES1 0.0
40 H10	4.2715  7.4039  13.3051 H	1 RES1 0.0
41 H11	6.67  6.9668  8.2376 H	1 RES1 0.0
42 H12	5.1941  6.5168  7.814 H	1 RES1 0.0
43 H13	6.2331  5.4333  8.3676 H	1 RES1 0.0
44 H14	6.937  9.4878  12.1781 H	1 RES1 0.0
45 H15	6.9923  8.4573  13.4016 H	1 RES1 0.0
46 H16	5.7507  9.4563  13.2519 H	1 RES1 0.0
47 H17	2.4033  6.0108  13.0726 H	1 RES1 0.0
48 H18	3.0854  4.6077  12.716 H	1 RES1 0.0
49 H19	2.083  5.2957  11.6757 H	1 RES1 0.0
50 H20	4.8494  -0.6851  15.1335 H	1 RES1 0.0
51 H21	6.9383  -1.3286  14.3473 H	1 RES1 0.0
52 H22	7.6715  -0.6478  12.2471 H	1 RES1 0.0
53 H23	6.3227  0.7481  10.9368 H	1 RES1 0.0
54 H24	0.8945  2.0122  14.0597 H	1 RES1 0.0
55 H25	0.3476  3.9786  15.2241 H	1 RES1 0.0
56 H26	2.0439  5.1696  16.3294 H	1 RES1 0.0
57 H27	4.2051  4.3168  16.4062 H	1 RES1 0.0
58 H28	4.7468  2.3347  15.2931 H	1 RES1 0.0
@<TRIPOS>BOND
1 1 20 1
1 1 25 1
1 2 4 1
1 2 5 1
1 2 9 1
1 3 4 1
1 3 6 1
1 3 19 1
1 5 6 2
1 5 7 1
1 6 8 1
1 7 31 1
1 7 32 1
1 7 33 1
1 8 34 1
1 8 35 1
1 8 36 1
1 9 10 1
1 9 37 1
1 9 38 1
1 10 11 ar
1 10 15 ar
1 11 12 ar
1 11 16 1
1 12 13 ar
1 12 39 1
1 13 14 ar
1 13 17 1
1 14 15 ar
1 14 40 1
1 15 18 1
1 16 41 1
1 16 42 1
1 16 43 1
1 17 44 1
1 17 45 1
1 17 46 1
1 18 47 1
1 18 48 1
1 18 49 1
1 19 20 ar
1 19 24 ar
1 20 21 ar
1 21 22 ar
1 21 50 1
1 22 23 ar
1 22 51 1
1 23 24 ar
1 23 52 1
1 24 53 1
1 25 26 ar
1 25 30 ar
1 26 27 ar
1 26 54 1
1 27 28 ar
1 27 55 1
1 28 29 ar
1 28 56 1
1 29 30 ar
1 29 57 1
1 30 58 1
@<TRIPOS>SUBSTRUCTURE
1 RES1 58

