@<TRIPOS>MOLECULE

51	55	1
SMALL
PartialCharges
****
Generated from molSimplify

@<TRIPOS>ATOM
1 N1	6.7625  6.6183  4.5831 N.3	1 RES1 0.0
2 N2	7.9556  8.3524  3.9658 N.3	1 RES1 0.0
3 C1	7.6108  6.0591  3.5193 C.3	1 RES1 0.0
4 H1	7.0422  5.7648  2.7509 H	1 RES1 0.0
5 C2	6.9874  7.9235  4.7898 C.3	1 RES1 0.0
6 C3	8.4732  7.2865  3.0992 C.3	1 RES1 0.0
7 H2	8.2973  7.5119  2.1413 H	1 RES1 0.0
8 C4	9.9876  6.9525  3.2965 C.3	1 RES1 0.0
9 H3	10.5798  7.7203  3.0502 H	1 RES1 0.0
10 C5	10.2015  5.7512  2.3992 C.ar	1 RES1 0.0
11 C6	11.0207  5.7026  1.2775 C.ar	1 RES1 0.0
12 H4	11.54  6.4571  1.0272 H	1 RES1 0.0
13 C7	11.0689  4.5321  0.526 C.ar	1 RES1 0.0
14 H5	11.6313  4.4868  -0.2383 H	1 RES1 0.0
15 C8	10.3005  3.4293  0.8838 C.ar	1 RES1 0.0
16 H6	10.3398  2.638  0.3603 H	1 RES1 0.0
17 C9	9.4717  3.4761  2.0082 C.ar	1 RES1 0.0
18 H7	8.9492  2.7216  2.2539 H	1 RES1 0.0
19 C10	9.4243  4.6423  2.7587 C.ar	1 RES1 0.0
20 C11	8.5421  4.8874  3.967 C.3	1 RES1 0.0
21 H8	8.0257  4.0734  4.2308 H	1 RES1 0.0
22 C12	9.4154  5.4003  5.0878 C.ar	1 RES1 0.0
23 C13	9.5122  4.8573  6.3646 C.ar	1 RES1 0.0
24 H9	8.994  4.098  6.603 H	1 RES1 0.0
25 C14	10.3761  5.4367  7.2908 C.ar	1 RES1 0.0
26 H10	10.451  5.0708  8.1641 H	1 RES1 0.0
27 C15	11.1281  6.5488  6.9396 C.ar	1 RES1 0.0
28 H11	11.7116  6.9394  7.5784 H	1 RES1 0.0
29 C16	11.039  7.1  5.6617 C.ar	1 RES1 0.0
30 H12	11.5554  7.863  5.428 H	1 RES1 0.0
31 C17	10.183  6.516  4.735 C.ar	1 RES1 0.0
32 C18	8.3228  9.7739  3.8175 C.3	1 RES1 0.0
33 H13	7.5846  10.3107  4.2252 H	1 RES1 0.0
34 C19	8.4  10.1653  2.3502 C.3	1 RES1 0.0
35 H14	8.6456  11.1112  2.2761 H	1 RES1 0.0
36 H15	9.0773  9.6167  1.9011 H	1 RES1 0.0
37 H16	7.5282  10.0203  1.9269 H	1 RES1 0.0
38 C20	9.5996  10.1297  4.5683 C.3	1 RES1 0.0
39 H17	9.8002  11.0801  4.4395 H	1 RES1 0.0
40 H18	9.4785  9.9481  5.524 H	1 RES1 0.0
41 H19	10.3415  9.5888  4.2252 H	1 RES1 0.0
42 C21	5.6077  5.9034  5.1562 C.3	1 RES1 0.0
43 H20	5.0171  6.5932  5.5739 H	1 RES1 0.0
44 C22	4.7862  5.2165  4.0712 C.3	1 RES1 0.0
45 H21	4.0277  4.7509  4.482 H	1 RES1 0.0
46 H22	4.4541  5.8878  3.4382 H	1 RES1 0.0
47 H23	5.3489  4.5705  3.5952 H	1 RES1 0.0
48 C23	5.9946  4.9257  6.2599 C.3	1 RES1 0.0
49 H24	5.1895  4.4819  6.6011 H	1 RES1 0.0
50 H25	6.6098  4.2539  5.8991 H	1 RES1 0.0
51 H26	6.433  5.4121  6.9891 H	1 RES1 0.0
@<TRIPOS>BOND
1 1 3 1
1 1 5 1
1 1 42 1
1 2 5 1
1 2 6 1
1 2 32 1
1 3 4 1
1 3 6 1
1 3 20 1
1 6 7 1
1 6 8 1
1 8 9 1
1 8 10 1
1 8 31 1
1 10 11 ar
1 10 19 ar
1 11 12 1
1 11 13 ar
1 13 14 1
1 13 15 ar
1 15 16 1
1 15 17 ar
1 17 18 1
1 17 19 ar
1 19 20 1
1 20 21 1
1 20 22 1
1 22 23 ar
1 22 31 ar
1 23 24 1
1 23 25 ar
1 25 26 1
1 25 27 ar
1 27 28 1
1 27 29 ar
1 29 30 1
1 29 31 ar
1 32 33 1
1 32 34 1
1 32 38 1
1 34 35 1
1 34 36 1
1 34 37 1
1 38 39 1
1 38 40 1
1 38 41 1
1 42 43 1
1 42 44 1
1 42 48 1
1 44 45 1
1 44 46 1
1 44 47 1
1 48 49 1
1 48 50 1
1 48 51 1
@<TRIPOS>SUBSTRUCTURE
1 RES1 51

