@<TRIPOS>MOLECULE

52	54	1
SMALL
PartialCharges
****
Generated from molSimplify

@<TRIPOS>ATOM
1 C1	6.8071  2.6004  13.9831 C.ar	1 RES1 0.0
2 H1	7.168  1.8789  13.5199 H	1 RES1 0.0
3 C2	3.2256  10.3983  12.163 C.ar	1 RES1 0.0
4 H2	2.4093  10.6159  12.5511 H	1 RES1 0.0
5 N1	6.808  6.318  13.8518 N.pl3	1 RES1 0.0
6 C3	5.7837  4.7537  15.415 C.ar	1 RES1 0.0
7 C4	6.0354  2.3561  15.0978 C.ar	1 RES1 0.0
8 C5	5.6447  9.7336  10.99 C.ar	1 RES1 0.0
9 C6	3.7851  9.1321  14.2626 C.3	1 RES1 0.0
10 H3	3.1238  9.7167  14.6391 H	1 RES1 0.0
11 H4	3.4499  8.2316  14.2576 H	1 RES1 0.0
12 H5	4.587  9.1741  14.7883 H	1 RES1 0.0
13 N2	6.2012  8.3369  12.9314 N.pl3	1 RES1 0.0
14 C7	5.5339  3.4393  15.8187 C.ar	1 RES1 0.0
15 H6	5.0239  3.2841  16.5811 H	1 RES1 0.0
16 C8	7.9482  4.12  12.3474 C.3	1 RES1 0.0
17 H7	8.2399  3.2737  12.0005 H	1 RES1 0.0
18 H8	7.4624  4.5938  11.6688 H	1 RES1 0.0
19 H9	8.7113  4.6375  12.6141 H	1 RES1 0.0
20 C9	5.3134  5.8929  16.2832 C.3	1 RES1 0.0
21 H10	4.6444  5.5748  16.8945 H	1 RES1 0.0
22 H11	6.0564  6.2457  16.7784 H	1 RES1 0.0
23 H12	4.94  6.584  15.7303 H	1 RES1 0.0
24 C10	5.9996  7.0173  13.0453 C.3	1 RES1 0.0
25 C11	7.998  6.8796  14.5347 C.3	1 RES1 0.0
26 H13	7.7798  7.081  15.458 H	1 RES1 0.0
27 H14	8.7159  6.2277  14.5283 H	1 RES1 0.0
28 C12	4.0882  9.562  12.8496 C.ar	1 RES1 0.0
29 C13	4.7459  10.5985  10.3586 C.ar	1 RES1 0.0
30 H15	4.9754  10.9638  9.536 H	1 RES1 0.0
31 C14	5.7828  0.9461  15.5728 C.3	1 RES1 0.0
32 H16	5.4618  0.415  14.8414 H	1 RES1 0.0
33 H17	6.6004  0.5689  15.9061 H	1 RES1 0.0
34 H18	5.1262  0.9565  16.2726 H	1 RES1 0.0
35 C15	5.2772  9.1843  12.2078 C.ar	1 RES1 0.0
36 C16	3.5319  10.9238  10.9192 C.ar	1 RES1 0.0
37 C17	7.2708  9.0455  13.6573 C.3	1 RES1 0.0
38 H19	7.5372  9.8341  13.1614 H	1 RES1 0.0
39 H20	6.9463  9.3286  14.5263 H	1 RES1 0.0
40 C18	7.0064  9.5022  10.3785 C.3	1 RES1 0.0
41 H21	6.9072  9.2933  9.4465 H	1 RES1 0.0
42 H22	7.5387  10.2943  10.4747 H	1 RES1 0.0
43 H23	7.4376  8.7707  10.8263 H	1 RES1 0.0
44 C19	8.442  8.1367  13.8281 C.3	1 RES1 0.0
45 H24	9.1298  8.5813  14.3488 H	1 RES1 0.0
46 H25	8.8149  7.9137  12.9607 H	1 RES1 0.0
47 C20	7.0652  3.8962  13.5242 C.ar	1 RES1 0.0
48 C21	2.5737  11.8722  10.2127 C.3	1 RES1 0.0
49 H26	2.049  11.3807  9.5742 H	1 RES1 0.0
50 H27	1.9925  12.2798  10.8578 H	1 RES1 0.0
51 H28	3.075  12.5537  9.7583 H	1 RES1 0.0
52 C22	6.508  4.9558  14.253 C.ar	1 RES1 0.0
@<TRIPOS>BOND
1 1 2 1
1 1 7 ar
1 1 47 ar
1 3 4 1
1 3 28 ar
1 3 36 ar
1 5 24 1
1 5 25 1
1 5 52 1
1 6 14 ar
1 6 20 1
1 6 52 ar
1 7 14 ar
1 7 31 1
1 8 29 ar
1 8 35 ar
1 8 40 1
1 9 10 1
1 9 11 1
1 9 12 1
1 9 28 1
1 13 24 1
1 13 35 1
1 13 37 1
1 14 15 1
1 16 17 1
1 16 18 1
1 16 19 1
1 16 47 1
1 20 21 1
1 20 22 1
1 20 23 1
1 25 26 1
1 25 27 1
1 25 44 1
1 28 35 ar
1 29 30 1
1 29 36 ar
1 31 32 1
1 31 33 1
1 31 34 1
1 36 48 1
1 37 38 1
1 37 39 1
1 37 44 1
1 40 41 1
1 40 42 1
1 40 43 1
1 44 45 1
1 44 46 1
1 47 52 ar
1 48 49 1
1 48 50 1
1 48 51 1
@<TRIPOS>SUBSTRUCTURE
1 RES1 52

