@<TRIPOS>MOLECULE

25	25	1
SMALL
PartialCharges
****
Generated from molSimplify

@<TRIPOS>ATOM
1 O1	-1.3428  -1.7478  4.5704 O.2	1 RES1 0.0
2 O2	-2.5699  -1.7005  6.4599 O.3	1 RES1 0.0
3 N1	-2.6573  4.3054  3.2157 N.pl3	1 RES1 0.0
4 N2	-2.5129  2.325  4.03 N.pl3	1 RES1 0.0
5 C1	-1.913  3.1965  3.161 C.3	1 RES1 0.0
6 C2	-3.7025  4.1562  4.1131 C.2	1 RES1 0.0
7 C3	-3.6192  2.9287  4.626 C.2	1 RES1 0.0
8 C4	-2.4132  5.5145  2.4404 C.3	1 RES1 0.0
9 C5	-2.0879  1.0031  4.2399 C.2	1 RES1 0.0
10 C6	-2.559  0.2159  5.1871 C.2	1 RES1 0.0
11 C7	-2.0764  -1.173  5.3385 C.2	1 RES1 0.0
12 C8	-2.1781  -3.0709  6.7659 C.3	1 RES1 0.0
13 C9	-2.7775  -3.4013  8.104 C.3	1 RES1 0.0
14 H1	-4.3586  4.8098  4.3255 H	1 RES1 0.0
15 H2	-4.1998  2.5415  5.2704 H	1 RES1 0.0
16 H3	-3.1873  6.1117  2.5131 H	1 RES1 0.0
17 H4	-2.2719  5.277  1.5001 H	1 RES1 0.0
18 H5	-1.6173  5.97  2.7855 H	1 RES1 0.0
19 H6	-1.4184  0.6537  3.6635 H	1 RES1 0.0
20 H7	-3.2208  0.5477  5.7834 H	1 RES1 0.0
21 H8	-1.1915  -3.1481  6.8011 H	1 RES1 0.0
22 H9	-2.5183  -3.6902  6.0722 H	1 RES1 0.0
23 H10	-2.6094  -4.3438  8.313 H	1 RES1 0.0
24 H11	-3.7436  -3.2399  8.0782 H	1 RES1 0.0
25 H12	-2.3699  -2.8362  8.7931 H	1 RES1 0.0
@<TRIPOS>BOND
1 1 11 2
1 2 11 1
1 2 12 1
1 3 5 1
1 3 6 1
1 3 8 1
1 4 5 1
1 4 7 1
1 4 9 1
1 6 7 2
1 6 14 1
1 7 15 1
1 8 16 1
1 8 17 1
1 8 18 1
1 9 10 2
1 9 19 1
1 10 11 1
1 10 20 1
1 12 13 1
1 12 21 1
1 12 22 1
1 13 23 1
1 13 24 1
1 13 25 1
@<TRIPOS>SUBSTRUCTURE
1 RES1 25

