@<TRIPOS>MOLECULE

71	75	1
SMALL
PartialCharges
****
Generated from molSimplify

@<TRIPOS>ATOM
1 C1	7.3433  -1.2284  6.9039 C.ar	1 RES1 0.0
2 H1	7.7394  -2.0296  7.2287 H	1 RES1 0.0
3 C2	7.886  5.1954  7.316 C.3	1 RES1 0.0
4 N1	8.7166  6.1979  7.7068 N.pl3	1 RES1 0.0
5 C3	8.16  -0.088  6.7016 C.ar	1 RES1 0.0
6 C4	7.3795  8.7363  7.4704 C.ar	1 RES1 0.0
7 H2	8.0482  8.5493  6.822 H	1 RES1 0.0
8 C5	9.556  5.3976  5.8477 C.2	1 RES1 0.0
9 H3	10.1151  5.2363  5.097 H	1 RES1 0.0
10 C6	6.3301  8.2816  9.6074 C.ar	1 RES1 0.0
11 C7	9.7464  6.3235  6.7921 C.2	1 RES1 0.0
12 H4	10.4576  6.9524  6.8283 H	1 RES1 0.0
13 C8	9.7706  7.6124  9.5573 C.3	1 RES1 0.0
14 C9	7.7909  3.5697  5.4505 C.3	1 RES1 0.0
15 H5	6.8243  3.5624  5.7071 H	1 RES1 0.0
16 C10	6.1337  1.1184  6.0276 C.ar	1 RES1 0.0
17 H6	5.6974  1.9196  5.7625 H	1 RES1 0.0
18 C11	8.4721  7.0  8.927 C.3	1 RES1 0.0
19 H7	8.1008  6.3693  9.6074 H	1 RES1 0.0
20 C12	5.4498  10.0087  8.1167 C.ar	1 RES1 0.0
21 H8	4.8145  10.6944  7.94 H	1 RES1 0.0
22 C13	9.7174  2.1708  6.2417 C.ar	1 RES1 0.0
23 H9	10.27  2.9298  6.0915 H	1 RES1 0.0
24 C14	6.4169  9.7318  7.1978 C.ar	1 RES1 0.0
25 H10	6.4439  10.2085  6.3758 H	1 RES1 0.0
26 C15	5.3928  -0.0257  6.2087 C.ar	1 RES1 0.0
27 H11	4.4588  -0.0183  6.0394 H	1 RES1 0.0
28 C16	9.1607  3.3222  3.2422 C.3	1 RES1 0.0
29 H12	9.8764  3.8924  3.5957 H	1 RES1 0.0
30 H13	9.1071  3.434  2.269 H	1 RES1 0.0
31 H14	9.3542  2.3853  3.4541 H	1 RES1 0.0
32 C17	9.5404  -0.1247  6.9412 C.ar	1 RES1 0.0
33 H15	9.9439  -0.924  7.2553 H	1 RES1 0.0
34 C18	4.3053  8.9398  11.475 C.ar	1 RES1 0.0
35 H16	3.6403  9.1708  12.1138 H	1 RES1 0.0
36 N2	8.3917  4.7119  6.1661 N.pl3	1 RES1 0.0
37 C19	8.3777  2.2661  5.9808 C.ar	1 RES1 0.0
38 C20	7.544  1.1239  6.2289 C.ar	1 RES1 0.0
39 C21	6.7488  2.807  3.3104 C.3	1 RES1 0.0
40 H17	6.9409  1.8811  3.568 H	1 RES1 0.0
41 H18	6.7394  2.8785  2.3329 H	1 RES1 0.0
42 H19	5.8736  3.0692  3.6649 H	1 RES1 0.0
43 C22	10.3074  0.9791  6.7293 C.ar	1 RES1 0.0
44 H20	11.2404  0.9497  6.9071 H	1 RES1 0.0
45 C23	7.8239  3.7255  3.8779 C.3	1 RES1 0.0
46 C24	7.4542  5.1611  3.4829 C.3	1 RES1 0.0
47 H21	6.6132  5.4123  3.9183 H	1 RES1 0.0
48 H22	7.3471  5.2161  2.5107 H	1 RES1 0.0
49 H23	8.165  5.7716  3.7682 H	1 RES1 0.0
50 C25	5.2191  7.8892  11.7348 C.ar	1 RES1 0.0
51 H24	5.1535  7.3997  12.5472 H	1 RES1 0.0
52 C26	4.3928  9.62  10.2878 C.ar	1 RES1 0.0
53 H25	3.7796  10.3222  10.1078 H	1 RES1 0.0
54 C27	6.1907  7.5721  10.8329 C.ar	1 RES1 0.0
55 H26	6.7889  6.8607  11.0267 H	1 RES1 0.0
56 C28	5.3825  9.2955  9.3188 C.ar	1 RES1 0.0
57 C29	7.3732  8.0323  8.6512 C.ar	1 RES1 0.0
58 C30	10.8262  6.5123  9.732 C.3	1 RES1 0.0
59 H27	10.4309  5.7533  10.209 H	1 RES1 0.0
60 H28	11.5819  6.8644  10.2473 H	1 RES1 0.0
61 H29	11.1394  6.2172  8.8514 H	1 RES1 0.0
62 C31	10.3408  8.8188  8.795 C.3	1 RES1 0.0
63 H30	10.598  8.5419  7.891 H	1 RES1 0.0
64 H31	11.1282  9.1616  9.2677 H	1 RES1 0.0
65 H32	9.661  9.5228  8.7407 H	1 RES1 0.0
66 C32	9.411  8.1093  10.9575 C.3	1 RES1 0.0
67 H33	8.6677  8.7473  10.8979 H	1 RES1 0.0
68 H34	10.189  8.5529  11.3568 H	1 RES1 0.0
69 H35	9.145  7.3502  11.5165 H	1 RES1 0.0
70 C33	6.0193  -1.2082  6.6463 C.ar	1 RES1 0.0
71 H36	5.5048  -1.9984  6.7613 H	1 RES1 0.0
@<TRIPOS>BOND
1 1 2 1
1 1 5 ar
1 1 70 ar
1 3 4 1
1 3 36 1
1 4 11 1
1 4 18 1
1 5 32 ar
1 5 38 ar
1 6 7 1
1 6 24 ar
1 6 57 ar
1 8 9 1
1 8 11 2
1 8 36 1
1 10 54 ar
1 10 56 ar
1 10 57 ar
1 11 12 1
1 13 18 1
1 13 58 1
1 13 62 1
1 13 66 1
1 14 15 1
1 14 36 1
1 14 37 1
1 14 45 1
1 16 17 1
1 16 26 ar
1 16 38 ar
1 18 19 1
1 18 57 1
1 20 21 1
1 20 24 ar
1 20 56 ar
1 22 23 1
1 22 37 ar
1 22 43 ar
1 24 25 1
1 26 27 1
1 26 70 ar
1 28 29 1
1 28 30 1
1 28 31 1
1 28 45 1
1 32 33 1
1 32 43 ar
1 34 35 1
1 34 50 ar
1 34 52 ar
1 37 38 ar
1 39 40 1
1 39 41 1
1 39 42 1
1 39 45 1
1 43 44 1
1 45 46 1
1 46 47 1
1 46 48 1
1 46 49 1
1 50 51 1
1 50 54 ar
1 52 53 1
1 52 56 ar
1 54 55 1
1 58 59 1
1 58 60 1
1 58 61 1
1 62 63 1
1 62 64 1
1 62 65 1
1 66 67 1
1 66 68 1
1 66 69 1
1 70 71 1
@<TRIPOS>SUBSTRUCTURE
1 RES1 71

