@<TRIPOS>MOLECULE

37	39	1
SMALL
PartialCharges
****
Generated from molSimplify

@<TRIPOS>ATOM
1 O1	7.1259  2.8715  7.5558 O.3	1 RES1 0.0
2 O2	-1.3614  11.664  11.5589 O.3	1 RES1 0.0
3 N1	4.1212  6.327  10.736 N.pl3	1 RES1 0.0
4 N2	2.7066  7.8231  11.378 N.pl3	1 RES1 0.0
5 C1	4.8978  5.4248  9.9288 C.ar	1 RES1 0.0
6 C2	5.632  5.8939  8.8509 C.ar	1 RES1 0.0
7 H1	5.6323  6.8014  8.647 H	1 RES1 0.0
8 C3	6.3622  5.0148  8.0838 C.ar	1 RES1 0.0
9 H2	6.8411  5.3274  7.3507 H	1 RES1 0.0
10 C4	6.3839  3.6525  8.4018 C.ar	1 RES1 0.0
11 C5	5.6684  3.1891  9.4858 C.ar	1 RES1 0.0
12 H3	5.6914  2.2868  9.7079 H	1 RES1 0.0
13 C6	4.9143  4.0737  10.2444 C.ar	1 RES1 0.0
14 H4	4.4184  3.7594  10.9666 H	1 RES1 0.0
15 C7	7.3727  1.5139  7.9442 C.3	1 RES1 0.0
16 H5	7.7582  1.4978  8.823 H	1 RES1 0.0
17 H6	7.981  1.1086  7.3216 H	1 RES1 0.0
18 H7	6.5462  1.0268  7.9479 H	1 RES1 0.0
19 C8	3.2149  7.2175  10.2589 C.3	1 RES1 0.0
20 C9	4.1802  6.3829  12.1221 C.2	1 RES1 0.0
21 H8	4.7256  5.8676  12.6707 H	1 RES1 0.0
22 C10	3.3172  7.3069  12.5214 C.2	1 RES1 0.0
23 H9	3.1488  7.5631  13.4002 H	1 RES1 0.0
24 C11	1.6549  8.8069  11.429 C.ar	1 RES1 0.0
25 C12	1.2142  9.47  10.299 C.ar	1 RES1 0.0
26 H10	1.6014  9.2831  9.4736 H	1 RES1 0.0
27 C13	0.2058  10.404  10.3864 C.ar	1 RES1 0.0
28 H11	-0.0858  10.8333  9.6144 H	1 RES1 0.0
29 C14	-0.3763  10.7126  11.5929 C.ar	1 RES1 0.0
30 C15	0.0793  10.0773  12.7193 C.ar	1 RES1 0.0
31 H12	-0.2981  10.2782  13.5459 H	1 RES1 0.0
32 C16	1.0947  9.14  12.6392 C.ar	1 RES1 0.0
33 H13	1.402  8.73  13.4148 H	1 RES1 0.0
34 C17	-2.0451  11.9705  12.7642 C.3	1 RES1 0.0
35 H14	-2.4474  11.1722  13.1162 H	1 RES1 0.0
36 H15	-2.7278  12.6217  12.5882 H	1 RES1 0.0
37 H16	-1.4225  12.3231  13.4051 H	1 RES1 0.0
@<TRIPOS>BOND
1 1 10 1
1 1 15 1
1 2 29 1
1 2 34 1
1 3 5 1
1 3 19 1
1 3 20 1
1 4 19 1
1 4 22 1
1 4 24 1
1 5 6 ar
1 5 13 ar
1 6 7 1
1 6 8 ar
1 8 9 1
1 8 10 ar
1 10 11 ar
1 11 12 1
1 11 13 ar
1 13 14 1
1 15 16 1
1 15 17 1
1 15 18 1
1 20 21 1
1 20 22 2
1 22 23 1
1 24 25 ar
1 24 32 ar
1 25 26 1
1 25 27 ar
1 27 28 1
1 27 29 ar
1 29 30 ar
1 30 31 1
1 30 32 ar
1 32 33 1
1 34 35 1
1 34 36 1
1 34 37 1
@<TRIPOS>SUBSTRUCTURE
1 RES1 37

