@<TRIPOS>MOLECULE

27	28	1
SMALL
PartialCharges
****
Generated from molSimplify

@<TRIPOS>ATOM
1 O1	0.8694  7.2462  7.6142 O.2	1 RES1 0.0
2 N1	2.3781  5.6811  6.8583 N.am	1 RES1 0.0
3 C1	3.2762  4.6311  7.0342 C.2	1 RES1 0.0
4 O2	3.9842  4.2533  6.119 O.2	1 RES1 0.0
5 N2	3.329  4.0259  8.2908 N.am	1 RES1 0.0
6 C2	2.5758  4.566  9.2989 C.2	1 RES1 0.0
7 C3	1.7759  5.649  9.1198 C.2	1 RES1 0.0
8 C4	1.5939  6.2934  7.8539 C.2	1 RES1 0.0
9 N3	1.1868  5.9217  10.351 N.pl3	1 RES1 0.0
10 C5	1.5969  5.0308  11.2548 C.3	1 RES1 0.0
11 N4	2.4716  4.1826  10.6175 N.pl3	1 RES1 0.0
12 C6	2.2842  6.195  5.4777 C.3	1 RES1 0.0
13 H1	3.1837  6.3889  5.1397 H	1 RES1 0.0
14 H2	1.7487  7.0154  5.4702 H	1 RES1 0.0
15 H3	1.8591  5.5217  4.9067 H	1 RES1 0.0
16 C7	4.2167  2.8584  8.4371 C.3	1 RES1 0.0
17 H4	4.5013  2.5512  7.551 H	1 RES1 0.0
18 H5	3.7356  2.1372  8.8939 H	1 RES1 0.0
19 H6	5.004  3.1105  8.9636 H	1 RES1 0.0
20 C8	0.3635  7.0949  10.6432 C.3	1 RES1 0.0
21 H7	0.914  7.9035  10.582 H	1 RES1 0.0
22 H8	-0.0047  7.0182  11.5481 H	1 RES1 0.0
23 H9	-0.3697  7.1489  9.9954 H	1 RES1 0.0
24 C9	3.2  3.1336  11.337 C.3	1 RES1 0.0
25 H10	2.9853  2.2607  10.9465 H	1 RES1 0.0
26 H11	2.9371  3.1425  12.2811 H	1 RES1 0.0
27 H12	4.1633  3.2962  11.2643 H	1 RES1 0.0
@<TRIPOS>BOND
1 1 8 2
1 2 3 am
1 2 8 am
1 2 12 1
1 3 4 2
1 3 5 am
1 5 6 1
1 5 16 1
1 6 7 2
1 6 11 1
1 7 8 1
1 7 9 1
1 9 10 1
1 9 20 1
1 10 11 1
1 11 24 1
1 12 13 1
1 12 14 1
1 12 15 1
1 16 17 1
1 16 18 1
1 16 19 1
1 20 21 1
1 20 22 1
1 20 23 1
1 24 25 1
1 24 26 1
1 24 27 1
@<TRIPOS>SUBSTRUCTURE
1 RES1 27

