@<TRIPOS>MOLECULE

50	52	1
SMALL
PartialCharges
****
Generated from molSimplify

@<TRIPOS>ATOM
1 O1	3.0803  2.1259  6.7987 O.3	1 RES1 0.0
2 H1	3.2441  1.531  7.3385 H	1 RES1 0.0
3 N1	2.2572  3.3961  4.4045 N.pl3	1 RES1 0.0
4 N2	3.6877  4.7473  3.4466 N.pl3	1 RES1 0.0
5 C1	3.4531  3.4455  3.7502 C.3	1 RES1 0.0
6 C2	1.6489  2.2014  4.9386 C.3	1 RES1 0.0
7 H2	2.0627  1.4297  4.5234 H	1 RES1 0.0
8 H3	0.7095  2.197  4.6966 H	1 RES1 0.0
9 C3	1.7618  2.0633  6.4364 C.3	1 RES1 0.0
10 H4	1.2667  2.7747  6.8703 H	1 RES1 0.0
11 H5	1.384  1.2153  6.7171 H	1 RES1 0.0
12 C4	1.6984  4.6654  4.5606 C.ar	1 RES1 0.0
13 C5	0.576  5.1127  5.1448 C.ar	1 RES1 0.0
14 H6	-0.0464  4.5361  5.5243 H	1 RES1 0.0
15 C6	0.4022  6.4873  5.1477 C.ar	1 RES1 0.0
16 H7	-0.3546  6.8335  5.5629 H	1 RES1 0.0
17 C7	1.2881  7.3647  4.5706 C.ar	1 RES1 0.0
18 H8	1.1203  8.2796  4.5978 H	1 RES1 0.0
19 C8	2.4033  6.9016  3.9649 C.ar	1 RES1 0.0
20 H9	2.9995  7.4853  3.5554 H	1 RES1 0.0
21 C9	2.638  5.5379  3.9664 C.ar	1 RES1 0.0
22 C10	4.873  5.2109  2.7407 C.3	1 RES1 0.0
23 H10	5.2448  4.4679  2.2409 H	1 RES1 0.0
24 H11	5.5351  5.4821  3.3965 H	1 RES1 0.0
25 C11	4.638  6.3685  1.7856 C.ar	1 RES1 0.0
26 C12	5.1533  7.637  2.0233 C.ar	1 RES1 0.0
27 C13	4.9007  8.6831  1.1183 C.ar	1 RES1 0.0
28 C14	4.1707  8.4138  0.0158 C.ar	1 RES1 0.0
29 C15	3.7033  7.1207  -0.2721 C.ar	1 RES1 0.0
30 C16	3.9202  6.0873  0.6343 C.ar	1 RES1 0.0
31 C17	3.4609  4.7176  0.3122 C.3	1 RES1 0.0
32 H12	3.7967  4.1052  0.9708 H	1 RES1 0.0
33 H13	3.7863  4.4659  -0.5556 H	1 RES1 0.0
34 H14	2.5011  4.6932  0.3136 H	1 RES1 0.0
35 C18	2.9617  6.8629  -1.5207 C.3	1 RES1 0.0
36 H15	3.5286  7.0572  -2.271 H	1 RES1 0.0
37 H16	2.1799  7.4187  -1.5579 H	1 RES1 0.0
38 H17	2.6997  5.9407  -1.5479 H	1 RES1 0.0
39 C19	3.8892  9.541  -0.9651 C.3	1 RES1 0.0
40 H18	3.4775  10.2729  -0.4997 H	1 RES1 0.0
41 H19	3.299  9.2269  -1.6538 H	1 RES1 0.0
42 H20	4.7138  9.8351  -1.3589 H	1 RES1 0.0
43 C20	5.5383  10.0272  1.4076 C.3	1 RES1 0.0
44 H21	5.0276  10.486  2.0791 H	1 RES1 0.0
45 H22	5.5558  10.5525  0.6043 H	1 RES1 0.0
46 H23	6.436  9.8953  1.7226 H	1 RES1 0.0
47 C21	5.9201  7.9052  3.3421 C.3	1 RES1 0.0
48 H24	6.8464  7.6762  3.2332 H	1 RES1 0.0
49 H25	5.5395  7.3741  4.0451 H	1 RES1 0.0
50 H26	5.8453  8.8348  3.5683 H	1 RES1 0.0
@<TRIPOS>BOND
1 1 2 1
1 1 9 1
1 3 5 1
1 3 6 1
1 3 12 1
1 4 5 1
1 4 21 1
1 4 22 1
1 6 7 1
1 6 8 1
1 6 9 1
1 9 10 1
1 9 11 1
1 12 13 ar
1 12 21 ar
1 13 14 1
1 13 15 ar
1 15 16 1
1 15 17 ar
1 17 18 1
1 17 19 ar
1 19 20 1
1 19 21 ar
1 22 23 1
1 22 24 1
1 22 25 1
1 25 26 ar
1 25 30 ar
1 26 27 ar
1 26 47 1
1 27 28 ar
1 27 43 1
1 28 29 ar
1 28 39 1
1 29 30 ar
1 29 35 1
1 30 31 1
1 31 32 1
1 31 33 1
1 31 34 1
1 35 36 1
1 35 37 1
1 35 38 1
1 39 40 1
1 39 41 1
1 39 42 1
1 43 44 1
1 43 45 1
1 43 46 1
1 47 48 1
1 47 49 1
1 47 50 1
@<TRIPOS>SUBSTRUCTURE
1 RES1 50

