@<TRIPOS>MOLECULE

37	39	1
SMALL
PartialCharges
****
Generated from molSimplify

@<TRIPOS>ATOM
1 N1	10.0378  14.6196  1.3913 N.pl3	1 RES1 0.0
2 N2	13.085  15.8262  2.978 N.1	1 RES1 0.0
3 C1	9.1692  13.8184  2.027 C.3	1 RES1 0.0
4 C2	9.7085  15.9443  1.6394 C.2	1 RES1 0.0
5 H1	10.1607  16.6937  1.3217 H	1 RES1 0.0
6 C3	11.0776  14.1823  0.4597 C.3	1 RES1 0.0
7 H2	11.5953  14.9568  0.1888 H	1 RES1 0.0
8 H3	10.6501  13.824  -0.334 H	1 RES1 0.0
9 C4	12.0165  13.1433  1.0119 C.ar	1 RES1 0.0
10 C5	12.0199  11.8569  0.5116 C.ar	1 RES1 0.0
11 H4	11.4126  11.6251  -0.1528 H	1 RES1 0.0
12 C6	12.9079  10.9073  0.9786 C.ar	1 RES1 0.0
13 H5	12.8889  10.0456  0.6294 H	1 RES1 0.0
14 C7	13.818  11.2249  1.9524 C.ar	1 RES1 0.0
15 H6	14.4145  10.5836  2.2653 H	1 RES1 0.0
16 C8	13.8423  12.4857  2.4575 C.ar	1 RES1 0.0
17 H7	14.4639  12.701  3.115 H	1 RES1 0.0
18 C9	12.9495  13.4673  2.0043 C.ar	1 RES1 0.0
19 C10	13.0116  14.7936  2.5483 C.1	1 RES1 0.0
20 N3	8.3006  14.6196  2.6626 N.pl3	1 RES1 0.0
21 N4	5.2534  15.8262  1.0759 N.1	1 RES1 0.0
22 C11	8.6299  15.9443  2.4145 C.2	1 RES1 0.0
23 H8	8.1777  16.6937  2.7322 H	1 RES1 0.0
24 C12	7.2608  14.1823  3.5942 C.3	1 RES1 0.0
25 H9	6.7431  14.9568  3.8651 H	1 RES1 0.0
26 H10	7.6883  13.824  4.3879 H	1 RES1 0.0
27 C13	6.3219  13.1433  3.0421 C.ar	1 RES1 0.0
28 C14	6.3185  11.8569  3.5423 C.ar	1 RES1 0.0
29 H11	6.9258  11.6251  4.2067 H	1 RES1 0.0
30 C15	5.4305  10.9073  3.0753 C.ar	1 RES1 0.0
31 H12	5.4495  10.0456  3.4245 H	1 RES1 0.0
32 C16	4.5203  11.2249  2.1015 C.ar	1 RES1 0.0
33 H13	3.9239  10.5836  1.7886 H	1 RES1 0.0
34 C17	4.4961  12.4857  1.5964 C.ar	1 RES1 0.0
35 H14	3.8745  12.701  0.9389 H	1 RES1 0.0
36 C18	5.3889  13.4673  2.0497 C.ar	1 RES1 0.0
37 C19	5.3268  14.7936  1.5056 C.1	1 RES1 0.0
@<TRIPOS>BOND
1 1 3 1
1 1 4 1
1 1 6 1
1 2 19 3
1 3 20 1
1 4 5 1
1 4 22 2
1 6 7 1
1 6 8 1
1 6 9 1
1 9 10 ar
1 9 18 ar
1 10 11 1
1 10 12 ar
1 12 13 1
1 12 14 ar
1 14 15 1
1 14 16 ar
1 16 17 1
1 16 18 ar
1 18 19 1
1 20 22 1
1 20 24 1
1 21 37 3
1 22 23 1
1 24 25 1
1 24 26 1
1 24 27 1
1 27 28 ar
1 27 36 ar
1 28 29 1
1 28 30 ar
1 30 31 1
1 30 32 ar
1 32 33 1
1 32 34 ar
1 34 35 1
1 34 36 ar
1 36 37 1
@<TRIPOS>SUBSTRUCTURE
1 RES1 37

