@<TRIPOS>MOLECULE

60	63	1
SMALL
PartialCharges
****
Generated from molSimplify

@<TRIPOS>ATOM
1 N1	2.6052  5.2028  2.057 N.pl3	1 RES1 0.0
2 N2	4.586  5.1327  2.876 N.pl3	1 RES1 0.0
3 C1	3.5836  4.3424  2.4202 C.3	1 RES1 0.0
4 C2	1.3644  4.8224  1.4238 C.ar	1 RES1 0.0
5 C3	0.3153  4.3534  2.2083 C.ar	1 RES1 0.0
6 C4	0.4025  4.2375  3.7188 C.3	1 RES1 0.0
7 H1	1.3439  4.3462  3.9673 H	1 RES1 0.0
8 C5	-0.0402  2.8545  4.2092 C.3	1 RES1 0.0
9 H2	0.0552  2.8066  5.1619 H	1 RES1 0.0
10 H3	0.505  2.1803  3.7978 H	1 RES1 0.0
11 H4	-0.9593  2.7109  3.9722 H	1 RES1 0.0
12 C6	-0.3684  5.3755  4.3622 C.3	1 RES1 0.0
13 H5	0.0092  6.2134  4.0874 H	1 RES1 0.0
14 H6	-0.3139  5.2987  5.3182 H	1 RES1 0.0
15 H7	-1.2884  5.3334  4.0891 H	1 RES1 0.0
16 C7	-0.8652  4.0128  1.5501 C.ar	1 RES1 0.0
17 H8	-1.5901  3.6982  2.0404 H	1 RES1 0.0
18 C8	-0.9748  4.1374  0.1892 C.ar	1 RES1 0.0
19 H9	-1.7706  3.8982  -0.2287 H	1 RES1 0.0
20 C9	0.0617  4.6028  -0.5595 C.ar	1 RES1 0.0
21 H10	-0.039  4.6883  -1.4793 H	1 RES1 0.0
22 C10	1.2675  4.9507  0.0336 C.ar	1 RES1 0.0
23 C11	2.3806  5.4828  -0.82 C.3	1 RES1 0.0
24 H11	3.2029  5.4523  -0.2863 H	1 RES1 0.0
25 C12	2.6221  4.6405  -2.0914 C.3	1 RES1 0.0
26 H12	2.7643  3.7243  -1.8446 H	1 RES1 0.0
27 H13	3.3952  4.9725  -2.5522 H	1 RES1 0.0
28 H14	1.8549  4.7028  -2.6657 H	1 RES1 0.0
29 C13	2.12  6.9397  -1.1765 C.3	1 RES1 0.0
30 H15	1.393  6.9905  -1.8018 H	1 RES1 0.0
31 H16	2.9087  7.3181  -1.5714 H	1 RES1 0.0
32 H17	1.8924  7.4283  -0.3818 H	1 RES1 0.0
33 C14	2.9794  6.5093  2.2974 C.2	1 RES1 0.0
34 H18	2.4711  7.2717  2.1391 H	1 RES1 0.0
35 C15	4.2282  6.4629  2.8079 C.2	1 RES1 0.0
36 H19	4.7481  7.1891  3.0656 H	1 RES1 0.0
37 C16	5.895  4.5677  3.2609 C.3	1 RES1 0.0
38 H20	5.7072  3.7344  3.7419 H	1 RES1 0.0
39 C17	6.5967  5.4871  4.2498 C.ar	1 RES1 0.0
40 C18	7.7586  6.1554  3.9788 C.ar	1 RES1 0.0
41 H21	8.1668  6.0583  3.1478 H	1 RES1 0.0
42 C19	8.335  6.9803  4.9447 C.ar	1 RES1 0.0
43 H22	9.1196  7.4413  4.7522 H	1 RES1 0.0
44 C20	7.7521  7.1122  6.169 C.ar	1 RES1 0.0
45 H23	8.1236  7.6834  6.8025 H	1 RES1 0.0
46 C21	6.6174  6.4033  6.4619 C.ar	1 RES1 0.0
47 H24	6.2377  6.4657  7.3093 H	1 RES1 0.0
48 C22	6.0396  5.6031  5.5154 C.ar	1 RES1 0.0
49 H25	5.2648  5.1305  5.7214 H	1 RES1 0.0
50 C23	6.6745  4.1795  2.0144 C.ar	1 RES1 0.0
51 C24	6.8063  5.0305  0.9297 C.ar	1 RES1 0.0
52 H26	6.4418  5.8843  0.9659 H	1 RES1 0.0
53 C25	7.4792  4.6158  -0.2073 C.ar	1 RES1 0.0
54 H27	7.6042  5.2117  -0.91 H	1 RES1 0.0
55 C26	7.9598  3.3488  -0.3061 C.ar	1 RES1 0.0
56 H28	8.3664  3.0647  -1.0943 H	1 RES1 0.0
57 C27	7.847  2.5051  0.7355 C.ar	1 RES1 0.0
58 H29	8.1967  1.6454  0.673 H	1 RES1 0.0
59 C28	7.2022  2.9095  1.9269 C.ar	1 RES1 0.0
60 H30	7.133  2.3239  2.6443 H	1 RES1 0.0
@<TRIPOS>BOND
1 1 3 1
1 1 4 1
1 1 33 1
1 2 3 1
1 2 35 1
1 2 37 1
1 4 5 ar
1 4 22 ar
1 5 6 1
1 5 16 ar
1 6 7 1
1 6 8 1
1 6 12 1
1 8 9 1
1 8 10 1
1 8 11 1
1 12 13 1
1 12 14 1
1 12 15 1
1 16 17 1
1 16 18 ar
1 18 19 1
1 18 20 ar
1 20 21 1
1 20 22 ar
1 22 23 1
1 23 24 1
1 23 25 1
1 23 29 1
1 25 26 1
1 25 27 1
1 25 28 1
1 29 30 1
1 29 31 1
1 29 32 1
1 33 34 1
1 33 35 2
1 35 36 1
1 37 38 1
1 37 39 1
1 37 50 1
1 39 40 ar
1 39 48 ar
1 40 41 1
1 40 42 ar
1 42 43 1
1 42 44 ar
1 44 45 1
1 44 46 ar
1 46 47 1
1 46 48 ar
1 48 49 1
1 50 51 ar
1 50 59 ar
1 51 52 1
1 51 53 ar
1 53 54 1
1 53 55 ar
1 55 56 1
1 55 57 ar
1 57 58 1
1 57 59 ar
1 59 60 1
@<TRIPOS>SUBSTRUCTURE
1 RES1 60

