@<TRIPOS>MOLECULE

79	84	1
SMALL
PartialCharges
****
Generated from molSimplify

@<TRIPOS>ATOM
1 N1	7.2943  8.5625  7.7568 N.pl3	1 RES1 0.0
2 N2	5.4846  9.5751  7.0108 N.pl3	1 RES1 0.0
3 C1	3.8526  10.5824  5.4353 C.ar	1 RES1 0.0
4 C2	8.2017  7.5199  8.1781 C.ar	1 RES1 0.0
5 C3	4.0989  9.7371  6.5172 C.ar	1 RES1 0.0
6 C4	7.175  9.7653  8.4119 C.2	1 RES1 0.0
7 C5	6.0498  10.387  7.9739 C.2	1 RES1 0.0
8 C6	3.1007  9.0362  7.2224 C.ar	1 RES1 0.0
9 C7	4.9052  11.3714  4.6838 C.3	1 RES1 0.0
10 H1	5.7874  11.0452  4.9611 H	1 RES1 0.0
11 C8	7.923  6.8207  9.336 C.ar	1 RES1 0.0
12 C9	7.2256  12.7645  10.4494 C.ar	1 RES1 0.0
13 C10	6.9793  11.6937  9.5624 C.ar	1 RES1 0.0
14 C11	9.4111  7.3667  7.4469 C.ar	1 RES1 0.0
15 C12	8.3858  12.5971  11.2827 C.ar	1 RES1 0.0
16 H2	8.5976  13.2444  11.9158 H	1 RES1 0.0
17 C13	7.8245  10.5578  9.4437 C.ar	1 RES1 0.0
18 C14	10.2861  6.3946  7.9238 C.ar	1 RES1 0.0
19 H3	11.0677  6.2223  7.4504 H	1 RES1 0.0
20 C15	2.3437  7.0374  8.5752 C.3	1 RES1 0.0
21 H4	1.4829  7.3953  8.8062 H	1 RES1 0.0
22 H5	2.6388  6.4424  9.2685 H	1 RES1 0.0
23 H6	2.279  6.5576  7.747 H	1 RES1 0.0
24 C16	5.2228  13.7736  9.5958 C.ar	1 RES1 0.0
25 H7	4.6226  14.4843  9.6093 H	1 RES1 0.0
26 C17	9.1739  11.4947  11.1509 C.ar	1 RES1 0.0
27 H8	9.9216  11.4295  11.7002 H	1 RES1 0.0
28 C18	4.8287  12.8701  5.0011 C.3	1 RES1 0.0
29 H9	3.9283  13.1778  4.8719 H	1 RES1 0.0
30 H10	5.4188  13.3514  4.4178 H	1 RES1 0.0
31 H11	5.089  13.0168  5.9134 H	1 RES1 0.0
32 C19	3.4015  9.008  9.6979 C.3	1 RES1 0.0
33 H12	4.1597  9.5956  9.6624 H	1 RES1 0.0
34 H13	3.4813  8.4262  10.4561 H	1 RES1 0.0
35 H14	2.5976  9.5283  9.7763 H	1 RES1 0.0
36 C20	4.7898  11.1971  3.1677 C.3	1 RES1 0.0
37 H15	4.7584  10.2611  2.9544 H	1 RES1 0.0
38 H16	5.5505  11.5969  2.7402 H	1 RES1 0.0
39 H17	3.9873  11.6226  2.857 H	1 RES1 0.0
40 C21	8.938  10.4557  10.249 C.ar	1 RES1 0.0
41 H18	9.5084  9.7229  10.1947 H	1 RES1 0.0
42 C22	6.3013  13.8035  10.4142 C.ar	1 RES1 0.0
43 H19	6.4279  14.5388  10.9694 H	1 RES1 0.0
44 C23	5.8696  11.6638  8.694 C.ar	1 RES1 0.0
45 C24	3.3445  8.1785  8.4249 C.3	1 RES1 0.0
46 H20	4.2275  7.7701  8.3111 H	1 RES1 0.0
47 C25	6.685  7.0092  10.1674 C.3	1 RES1 0.0
48 H21	6.0292  7.4947  9.6257 H	1 RES1 0.0
49 C26	4.983  12.6834  8.7144 C.ar	1 RES1 0.0
50 H22	4.2336  12.6735  8.1654 H	1 RES1 0.0
51 C27	1.8006  9.2088  6.7362 C.ar	1 RES1 0.0
52 H23	1.1037  8.7474  7.1443 H	1 RES1 0.0
53 C28	6.2508  8.4216  6.855 C.3	1 RES1 0.0
54 C29	2.5213  10.7198  5.0215 C.ar	1 RES1 0.0
55 H24	2.3138  11.2751  4.3048 H	1 RES1 0.0
56 C30	1.5167  10.0347  5.6729 C.ar	1 RES1 0.0
57 H25	0.6366  10.1326  5.3891 H	1 RES1 0.0
58 C31	8.8563  5.8592  9.7554 C.ar	1 RES1 0.0
59 H26	8.6754  5.3394  10.5049 H	1 RES1 0.0
60 C32	6.0745  5.6795  10.5571 C.3	1 RES1 0.0
61 H27	6.1901  5.0519  9.8393 H	1 RES1 0.0
62 H28	5.137  5.7965  10.7305 H	1 RES1 0.0
63 H29	6.5068  5.3465  11.3461 H	1 RES1 0.0
64 C33	9.7456  8.2191  6.2704 C.3	1 RES1 0.0
65 H30	8.897  8.5051  5.8722 H	1 RES1 0.0
66 C34	10.0373  5.6795  9.0707 C.ar	1 RES1 0.0
67 H31	10.667  5.0719  9.3861 H	1 RES1 0.0
68 C35	10.5298  7.504  5.1774 C.3	1 RES1 0.0
69 H32	11.4564  7.462  5.4237 H	1 RES1 0.0
70 H33	10.4395  7.9856  4.3516 H	1 RES1 0.0
71 H34	10.1866  6.6142  5.0679 H	1 RES1 0.0
72 C36	6.9209  7.7999  11.4237 C.3	1 RES1 0.0
73 H35	7.5082  7.31  12.0048 H	1 RES1 0.0
74 H36	6.0844  7.9517  11.8686 H	1 RES1 0.0
75 H37	7.3228  8.6428  11.2005 H	1 RES1 0.0
76 C37	10.491  9.4553  6.6397 C.3	1 RES1 0.0
77 H38	9.9102  10.0461  7.1236 H	1 RES1 0.0
78 H39	10.8005  9.8924  5.8424 H	1 RES1 0.0
79 H40	11.2428  9.223  7.1892 H	1 RES1 0.0
@<TRIPOS>BOND
1 1 4 1
1 1 6 1
1 1 53 1
1 2 5 1
1 2 7 1
1 2 53 1
1 3 5 ar
1 3 9 1
1 3 54 ar
1 4 11 ar
1 4 14 ar
1 5 8 ar
1 6 7 2
1 6 17 1
1 7 44 1
1 8 45 1
1 8 51 ar
1 9 10 1
1 9 28 1
1 9 36 1
1 11 47 1
1 11 58 ar
1 12 13 ar
1 12 15 ar
1 12 42 ar
1 13 17 ar
1 13 44 ar
1 14 18 ar
1 14 64 1
1 15 16 1
1 15 26 ar
1 17 40 ar
1 18 19 1
1 18 66 ar
1 20 21 1
1 20 22 1
1 20 23 1
1 20 45 1
1 24 25 1
1 24 42 ar
1 24 49 ar
1 26 27 1
1 26 40 ar
1 28 29 1
1 28 30 1
1 28 31 1
1 32 33 1
1 32 34 1
1 32 35 1
1 32 45 1
1 36 37 1
1 36 38 1
1 36 39 1
1 40 41 1
1 42 43 1
1 44 49 ar
1 45 46 1
1 47 48 1
1 47 60 1
1 47 72 1
1 49 50 1
1 51 52 1
1 51 56 ar
1 54 55 1
1 54 56 ar
1 56 57 1
1 58 59 1
1 58 66 ar
1 60 61 1
1 60 62 1
1 60 63 1
1 64 65 1
1 64 68 1
1 64 76 1
1 66 67 1
1 68 69 1
1 68 70 1
1 68 71 1
1 72 73 1
1 72 74 1
1 72 75 1
1 76 77 1
1 76 78 1
1 76 79 1
@<TRIPOS>SUBSTRUCTURE
1 RES1 79

