@<TRIPOS>MOLECULE

49	51	1
SMALL
PartialCharges
****
Generated from molSimplify

@<TRIPOS>ATOM
1 C1	0.9171  14.9511  7.4885 C.3	1 RES1 0.0
2 C2	2.5398  15.3281  9.0021 C.2	1 RES1 0.0
3 C3	2.6217  16.3039  8.0725 C.2	1 RES1 0.0
4 C4	3.3255  15.1016  10.1681 C.1	1 RES1 0.0
5 C5	3.5098  17.4161  7.9894 C.1	1 RES1 0.0
6 C6	1.1052  13.3649  9.4455 C.ar	1 RES1 0.0
7 C7	1.7651  12.1651  9.2121 C.ar	1 RES1 0.0
8 C8	1.4691  11.1125  10.0722 C.ar	1 RES1 0.0
9 H1	1.8921  10.283  9.9392 H	1 RES1 0.0
10 C9	0.5734  11.2475  11.1158 C.ar	1 RES1 0.0
11 C10	-0.0352  12.4728  11.3185 C.ar	1 RES1 0.0
12 H2	-0.637  12.569  12.0333 H	1 RES1 0.0
13 C11	0.2157  13.566  10.4982 C.ar	1 RES1 0.0
14 C12	-0.4286  14.8995  10.7652 C.3	1 RES1 0.0
15 H3	-0.9474  15.1681  9.991 H	1 RES1 0.0
16 H4	0.2588  15.561  10.9409 H	1 RES1 0.0
17 H5	-1.0118  14.8284  11.5368 H	1 RES1 0.0
18 C13	2.7605  12.0171  8.0991 C.3	1 RES1 0.0
19 H6	3.4879  12.6456  8.2294 H	1 RES1 0.0
20 H7	2.3255  12.1977  7.2515 H	1 RES1 0.0
21 H8	3.1108  11.1121  8.0978 H	1 RES1 0.0
22 C14	0.2669  10.0775  12.0253 C.3	1 RES1 0.0
23 H9	-0.6807  9.8751  11.9836 H	1 RES1 0.0
24 H10	0.5079  10.3046  12.9378 H	1 RES1 0.0
25 H11	0.7771  9.304  11.7397 H	1 RES1 0.0
26 C15	1.3327  16.8968  5.9972 C.ar	1 RES1 0.0
27 C16	0.2394  17.7608  6.0669 C.ar	1 RES1 0.0
28 C17	-0.0903  18.4508  4.9107 C.ar	1 RES1 0.0
29 H12	-0.8422  19.0142  4.9156 H	1 RES1 0.0
30 C18	0.6547  18.3362  3.7479 C.ar	1 RES1 0.0
31 C19	1.7834  17.5282  3.7579 C.ar	1 RES1 0.0
32 H13	2.3104  17.4724  2.9813 H	1 RES1 0.0
33 C20	2.1578  16.7994  4.8781 C.ar	1 RES1 0.0
34 C21	3.4132  15.9684  4.8574 C.3	1 RES1 0.0
35 H14	3.1903  15.0415  5.0409 H	1 RES1 0.0
36 H15	4.0266  16.2936  5.5352 H	1 RES1 0.0
37 H16	3.8297  16.0355  3.9852 H	1 RES1 0.0
38 C22	-0.5155  17.9929  7.3445 C.3	1 RES1 0.0
39 H17	0.0859  18.3548  8.0136 H	1 RES1 0.0
40 H18	-0.8841  17.1527  7.6595 H	1 RES1 0.0
41 H19	-1.2363  18.6212  7.1846 H	1 RES1 0.0
42 C23	0.2798  19.1024  2.5055 C.3	1 RES1 0.0
43 H20	0.127  18.4814  1.7767 H	1 RES1 0.0
44 H21	1.0008  19.7068  2.2689 H	1 RES1 0.0
45 H22	-0.5286  19.6119  2.6705 H	1 RES1 0.0
46 N1	1.4801  14.5102  8.6388 N.pl3	1 RES1 0.0
47 N2	1.616  16.0673  7.1531 N.pl3	1 RES1 0.0
48 N3	4.2076  18.3129  7.9337 N.1	1 RES1 0.0
49 N4	3.939  14.9311  11.1128 N.1	1 RES1 0.0
@<TRIPOS>BOND
1 1 46 1
1 1 47 1
1 2 3 2
1 2 4 1
1 2 46 1
1 3 5 1
1 3 47 1
1 4 49 3
1 5 48 3
1 6 7 ar
1 6 13 ar
1 6 46 1
1 7 8 ar
1 7 18 1
1 8 9 1
1 8 10 ar
1 10 11 ar
1 10 22 1
1 11 12 1
1 11 13 ar
1 13 14 1
1 14 15 1
1 14 16 1
1 14 17 1
1 18 19 1
1 18 20 1
1 18 21 1
1 22 23 1
1 22 24 1
1 22 25 1
1 26 27 ar
1 26 33 ar
1 26 47 1
1 27 28 ar
1 27 38 1
1 28 29 1
1 28 30 ar
1 30 31 ar
1 30 42 1
1 31 32 1
1 31 33 ar
1 33 34 1
1 34 35 1
1 34 36 1
1 34 37 1
1 38 39 1
1 38 40 1
1 38 41 1
1 42 43 1
1 42 44 1
1 42 45 1
@<TRIPOS>SUBSTRUCTURE
1 RES1 49

