@<TRIPOS>MOLECULE

73	75	1
SMALL
PartialCharges
****
Generated from molSimplify

@<TRIPOS>ATOM
1 C1	5.0796  2.7505  4.6449 C.3	1 RES1 0.0
2 C2	6.3487  4.1827  3.433 C.2	1 RES1 0.0
3 H1	6.5983  4.796  2.78 H	1 RES1 0.0
4 C3	7.1241  3.6939  4.4014 C.2	1 RES1 0.0
5 H2	8.0176  3.9006  4.5527 H	1 RES1 0.0
6 C4	6.8884  2.0373  6.2369 C.ar	1 RES1 0.0
7 C5	6.9347  2.6174  7.5005 C.ar	1 RES1 0.0
8 C6	7.5586  1.8849  8.5059 C.ar	1 RES1 0.0
9 H3	7.6008  2.2385  9.3655 H	1 RES1 0.0
10 C7	8.1139  0.6478  8.2642 C.ar	1 RES1 0.0
11 C8	8.0621  0.1066  6.9914 C.ar	1 RES1 0.0
12 H4	8.4332  -0.7322  6.8364 H	1 RES1 0.0
13 C9	7.4703  0.7874  5.9436 C.ar	1 RES1 0.0
14 C10	7.5342  0.2333  4.5232 C.3	1 RES1 0.0
15 H5	6.8214  0.6517  3.9993 H	1 RES1 0.0
16 C11	8.8595  0.5896  3.8849 C.3	1 RES1 0.0
17 H6	8.89  0.2396  2.9921 H	1 RES1 0.0
18 H7	9.5755  0.2144  4.4014 H	1 RES1 0.0
19 H8	8.9542  1.5454  3.8554 H	1 RES1 0.0
20 C12	7.3322  -1.2716  4.4789 C.3	1 RES1 0.0
21 H9	6.4886  -1.4931  4.8774 H	1 RES1 0.0
22 H10	8.0398  -1.7033  4.9622 H	1 RES1 0.0
23 H11	7.3425  -1.569  3.5658 H	1 RES1 0.0
24 C13	6.4338  4.0284  7.7791 C.3	1 RES1 0.0
25 H12	5.8096  4.2707  7.0633 H	1 RES1 0.0
26 C14	7.5856  5.0134  7.7403 C.3	1 RES1 0.0
27 H13	7.2562  5.8985  7.9119 H	1 RES1 0.0
28 H14	7.9995  4.989  6.8733 H	1 RES1 0.0
29 H15	8.2329  4.7761  8.41 H	1 RES1 0.0
30 C15	5.6778  4.1017  9.098 C.3	1 RES1 0.0
31 H16	5.3767  5.0023  9.2438 H	1 RES1 0.0
32 H17	6.2591  3.8383  9.8138 H	1 RES1 0.0
33 H18	4.9197  3.5133  9.0667 H	1 RES1 0.0
34 C16	3.9891  3.8061  2.6711 C.ar	1 RES1 0.0
35 C17	3.9338  2.9976  1.5163 C.ar	1 RES1 0.0
36 C18	2.8316  3.1859  0.677 C.ar	1 RES1 0.0
37 H19	2.7472  2.6627  -0.0885 H	1 RES1 0.0
38 C19	1.8722  4.1252  0.9574 C.ar	1 RES1 0.0
39 C20	1.9914  4.9554  2.0458 C.ar	1 RES1 0.0
40 H20	1.3435  5.602  2.2026 H	1 RES1 0.0
41 C21	3.086  4.8373  2.9257 C.ar	1 RES1 0.0
42 C22	5.0336  2.0242  1.1345 C.3	1 RES1 0.0
43 H21	5.5039  1.7677  1.9554 H	1 RES1 0.0
44 C23	4.514  0.7548  0.4815 C.3	1 RES1 0.0
45 H22	5.2522  0.1803  0.2675 H	1 RES1 0.0
46 H23	4.0407  0.9795  -0.3228 H	1 RES1 0.0
47 H24	3.9214  0.303  1.0865 H	1 RES1 0.0
48 C24	6.0381  2.719  0.2177 C.3	1 RES1 0.0
49 H25	6.735  2.102  -0.0184 H	1 RES1 0.0
50 H26	6.4189  3.4724  0.6752 H	1 RES1 0.0
51 H27	5.5908  3.0184  -0.5774 H	1 RES1 0.0
52 C25	3.2881  5.8517  4.0307 C.3	1 RES1 0.0
53 H28	3.8311  5.4318  4.7298 H	1 RES1 0.0
54 C26	2.0098  6.3411  4.6615 C.3	1 RES1 0.0
55 H29	2.217  6.9777  5.3496 H	1 RES1 0.0
56 H30	1.5369  5.5975  5.0434 H	1 RES1 0.0
57 H31	1.464  6.7604  3.9919 H	1 RES1 0.0
58 C27	4.0796  7.0365  3.4662 C.3	1 RES1 0.0
59 H32	4.2173  7.688  4.1579 H	1 RES1 0.0
60 H33	3.5871  7.435  2.7449 H	1 RES1 0.0
61 H34	4.9287  6.7301  3.1415 H	1 RES1 0.0
62 N1	6.3438  2.8162  5.1412 N.pl3	1 RES1 0.0
63 N2	5.0927  3.597  3.5879 N.pl3	1 RES1 0.0
64 O1	0.7532  3.9565  -1.3688 O.2	1 RES1 0.0
65 O2	-0.1538  5.5084  0.1845 O.2	1 RES1 0.0
66 O3	-0.4386  3.1635  0.487 O.2	1 RES1 0.0
67 O4	7.9368  -0.5494  10.548 O.2	1 RES1 0.0
68 O5	9.9047  0.7393  10.0942 O.2	1 RES1 0.0
69 O6	9.5404  -1.3736  8.9763 O.2	1 RES1 0.0
70 S1	0.3826  4.2059  -0.0262 S.o2	1 RES1 0.0
71 S2	8.9566  -0.2097  9.5814 S.o2	1 RES1 0.0
72 Na1	0.2752  3.643  -3.6678 Na	1 RES1 0.0
73 Na2	8.2779  -1.5492  12.6476 Na	1 RES1 0.0
@<TRIPOS>BOND
1 1 62 1
1 1 63 1
1 2 3 1
1 2 4 2
1 2 63 1
1 4 5 1
1 4 62 1
1 6 7 ar
1 6 13 ar
1 6 62 1
1 7 8 ar
1 7 24 1
1 8 9 1
1 8 10 ar
1 10 11 ar
1 10 71 1
1 11 12 1
1 11 13 ar
1 13 14 1
1 14 15 1
1 14 16 1
1 14 20 1
1 16 17 1
1 16 18 1
1 16 19 1
1 20 21 1
1 20 22 1
1 20 23 1
1 24 25 1
1 24 26 1
1 24 30 1
1 26 27 1
1 26 28 1
1 26 29 1
1 30 31 1
1 30 32 1
1 30 33 1
1 34 35 ar
1 34 41 ar
1 34 63 1
1 35 36 ar
1 35 42 1
1 36 37 1
1 36 38 ar
1 38 39 ar
1 38 70 1
1 39 40 1
1 39 41 ar
1 41 52 1
1 42 43 1
1 42 44 1
1 42 48 1
1 44 45 1
1 44 46 1
1 44 47 1
1 48 49 1
1 48 50 1
1 48 51 1
1 52 53 1
1 52 54 1
1 52 58 1
1 54 55 1
1 54 56 1
1 54 57 1
1 58 59 1
1 58 60 1
1 58 61 1
1 64 70 1
1 64 72 un
1 65 70 2
1 66 70 2
1 67 71 1
1 67 73 un
1 68 71 2
1 69 71 2
@<TRIPOS>SUBSTRUCTURE
1 RES1 73

