@<TRIPOS>MOLECULE

60	61	1
SMALL
PartialCharges
****
Generated from molSimplify

@<TRIPOS>ATOM
1 C1	0.8787  4.5878  15.4014 C.3	1 RES1 0.0
2 C2	0.9555  2.3782  15.1128 C.2	1 RES1 0.0
3 H1	1.1508  1.5472  14.7447 H	1 RES1 0.0
4 C3	0.296  2.6092  16.2602 C.2	1 RES1 0.0
5 H2	-0.0674  1.9717  16.8326 H	1 RES1 0.0
6 C4	1.9809  3.8038  13.3097 C.3	1 RES1 0.0
7 H3	2.1737  2.9521  12.9147 H	1 RES1 0.0
8 H4	2.8007  4.2795  13.4629 H	1 RES1 0.0
9 H5	1.4204  4.3126  12.7212 H	1 RES1 0.0
10 C5	-0.3796  4.6887  17.534 C.3	1 RES1 0.0
11 H6	-0.0981  5.6179  17.5205 H	1 RES1 0.0
12 H7	-0.0759  4.3002  18.3697 H	1 RES1 0.0
13 C6	-1.876  4.6348  17.491 C.3	1 RES1 0.0
14 H8	-2.2513  5.2446  18.144 H	1 RES1 0.0
15 H9	-2.1942  4.8948  16.6123 H	1 RES1 0.0
16 C7	-3.6393  3.1097  17.922 C.3	1 RES1 0.0
17 H10	-4.1119  3.4899  17.1524 H	1 RES1 0.0
18 C8	-3.9277  1.6247  18.0411 C.3	1 RES1 0.0
19 H11	-3.3817  1.2444  18.7593 H	1 RES1 0.0
20 C9	-5.3924  1.3827  18.342 C.3	1 RES1 0.0
21 H12	-5.9359  1.5956  17.5555 H	1 RES1 0.0
22 C10	-5.8471  2.2358  19.5386 C.3	1 RES1 0.0
23 H13	-5.4419  1.8971  20.3636 H	1 RES1 0.0
24 C11	-5.4547  3.6932  19.3253 C.3	1 RES1 0.0
25 H14	-5.9128  4.0416  18.5309 H	1 RES1 0.0
26 C12	-2.5371  0.1452  16.7977 C.2	1 RES1 0.0
27 C13	-2.2948  -0.4148  15.4541 C.3	1 RES1 0.0
28 H15	-2.9594  -0.083  14.8441 H	1 RES1 0.0
29 H16	-2.346  -1.373  15.4917 H	1 RES1 0.0
30 H17	-1.423  -0.1521  15.1504 H	1 RES1 0.0
31 C14	-5.7712  4.5671  20.5109 C.3	1 RES1 0.0
32 H18	-5.4232  5.4603  20.3609 H	1 RES1 0.0
33 H19	-6.7327  4.632  20.6216 H	1 RES1 0.0
34 C15	-6.0323  3.4692  22.6128 C.2	1 RES1 0.0
35 C16	-7.2172  3.5065  22.5206 C.3	1 RES1 0.0
36 H20	-7.6105  3.0571  23.2712 H	1 RES1 0.0
37 H21	-7.4894  3.0724  21.7099 H	1 RES1 0.0
38 H22	-7.5073  4.4219  22.508 H	1 RES1 0.0
39 C17	-7.805  1.3246  20.5866 C.2	1 RES1 0.0
40 C18	-9.3124  1.409  20.5947 C.3	1 RES1 0.0
41 H23	-9.6016  2.0243  19.9175 H	1 RES1 0.0
42 H24	-9.6119  1.7132  21.4546 H	1 RES1 0.0
43 H25	-9.6827  0.5406  20.4147 H	1 RES1 0.0
44 C19	-6.5049  -0.701  18.0472 C.2	1 RES1 0.0
45 C20	-6.6764  -2.0298  18.6734 C.3	1 RES1 0.0
46 H26	-6.0527  -2.1266  19.3962 H	1 RES1 0.0
47 H27	-6.516  -2.7142  18.0204 H	1 RES1 0.0
48 H28	-7.5721  -2.1128  19.0093 H	1 RES1 0.0
49 N1	1.2865  3.6033  14.5923 N.pl3	1 RES1 0.0
50 N2	0.2636  3.9863  16.4247 N.pl3	1 RES1 0.0
51 O1	-4.0445  3.7554  19.1248 O.3	1 RES1 0.0
52 O2	-3.6035  0.9845  16.816 O.3	1 RES1 0.0
53 O3	-1.8845  -0.0871  17.7651 O.2	1 RES1 0.0
54 O4	-7.2778  2.1681  19.6313 O.3	1 RES1 0.0
55 O5	-7.1311  0.6416  21.2936 O.2	1 RES1 0.0
56 O6	-5.1809  4.0098  21.7096 O.3	1 RES1 0.0
57 O7	-5.2841  2.7848  23.736 O.2	1 RES1 0.0
58 O8	-5.5486  -0.0014  18.6868 O.3	1 RES1 0.0
59 O9	-2.2786  3.2811  17.7834 O.3	1 RES1 0.0
60 O10	-7.114  -0.2862  17.1199 O.2	1 RES1 0.0
@<TRIPOS>BOND
1 1 49 1
1 1 50 1
1 2 3 1
1 2 4 2
1 2 49 1
1 4 5 1
1 4 50 1
1 6 7 1
1 6 8 1
1 6 9 1
1 6 49 1
1 10 11 1
1 10 12 1
1 10 13 1
1 10 50 1
1 13 14 1
1 13 15 1
1 13 59 1
1 16 17 1
1 16 18 1
1 16 51 1
1 16 59 1
1 18 19 1
1 18 20 1
1 18 52 1
1 20 21 1
1 20 22 1
1 20 58 1
1 22 23 1
1 22 24 1
1 22 54 1
1 24 25 1
1 24 31 1
1 24 51 1
1 26 27 1
1 26 52 1
1 26 53 2
1 27 28 1
1 27 29 1
1 27 30 1
1 31 32 1
1 31 33 1
1 31 56 1
1 34 35 1
1 34 56 1
1 34 57 2
1 35 36 1
1 35 37 1
1 35 38 1
1 39 40 1
1 39 54 1
1 39 55 2
1 40 41 1
1 40 42 1
1 40 43 1
1 44 45 1
1 44 58 1
1 44 60 2
1 45 46 1
1 45 47 1
1 45 48 1
@<TRIPOS>SUBSTRUCTURE
1 RES1 60

