@<TRIPOS>MOLECULE

41	44	1
SMALL
PartialCharges
****
Generated from molSimplify

@<TRIPOS>ATOM
1 N1	0.5202  3.6931  3.9262 N.pl3	1 RES1 0.0
2 N2	-0.7842  2.424  2.7411 N.pl3	1 RES1 0.0
3 C1	-0.1688  2.5296  3.9484 C.3	1 RES1 0.0
4 C2	0.3528  4.318  2.7071 C.ar	1 RES1 0.0
5 C3	0.908  5.4994  2.2428 C.ar	1 RES1 0.0
6 C4	0.5438  5.8087  0.9354 C.ar	1 RES1 0.0
7 H1	0.8769  6.6101  0.5473 H	1 RES1 0.0
8 C5	-0.3032  4.9804  0.1588 C.ar	1 RES1 0.0
9 H2	-0.5139  5.245  -0.7288 H	1 RES1 0.0
10 C6	-0.838  3.7922  0.6486 C.ar	1 RES1 0.0
11 C7	-0.4668  3.5118  1.9523 C.ar	1 RES1 0.0
12 C8	1.3339  4.3577  4.956 C.3	1 RES1 0.0
13 H3	1.7922  3.682  5.5163 H	1 RES1 0.0
14 H4	0.758  4.9114  5.5407 H	1 RES1 0.0
15 C9	2.3634  5.2389  4.2462 C.3	1 RES1 0.0
16 H5	3.0014  4.6501  3.7701 H	1 RES1 0.0
17 H6	2.8742  5.7365  4.9324 H	1 RES1 0.0
18 C10	1.7868  6.2625  3.2281 C.3	1 RES1 0.0
19 C11	0.941  7.3145  3.9546 C.3	1 RES1 0.0
20 H7	0.5954  7.9617  3.3055 H	1 RES1 0.0
21 H8	1.4953  7.7791  4.6155 H	1 RES1 0.0
22 H9	0.1919  6.8743  4.4082 H	1 RES1 0.0
23 C12	2.9523  6.9596  2.5237 C.3	1 RES1 0.0
24 H10	3.4884  6.2951  2.0429 H	1 RES1 0.0
25 H11	3.5123  7.4122  3.189 H	1 RES1 0.0
26 H12	2.6026  7.6182  1.8884 H	1 RES1 0.0
27 C13	-1.6386  1.3644  2.1923 C.3	1 RES1 0.0
28 H13	-2.2314  1.005  2.899 H	1 RES1 0.0
29 H14	-1.0813  0.624  1.8437 H	1 RES1 0.0
30 C14	-2.4803  1.9732  1.0548 C.3	1 RES1 0.0
31 H15	-3.1366  2.5979  1.4536 H	1 RES1 0.0
32 H16	-2.9914  1.244  0.6218 H	1 RES1 0.0
33 C15	-1.6869  2.7335  -0.044 C.3	1 RES1 0.0
34 C16	-2.6818  3.3519  -1.03 C.3	1 RES1 0.0
35 H17	-3.2684  3.9752  -0.5541 H	1 RES1 0.0
36 H18	-3.2209  2.6417  -1.4373 H	1 RES1 0.0
37 H19	-2.1918  3.833  -1.7299 H	1 RES1 0.0
38 C17	-0.7538  1.7712  -0.7922 C.3	1 RES1 0.0
39 H20	-0.27  2.2608  -1.4902 H	1 RES1 0.0
40 H21	-1.2829  1.056  -1.203 H	1 RES1 0.0
41 H22	-0.112  1.3819  -0.1626 H	1 RES1 0.0
@<TRIPOS>BOND
1 1 3 1
1 1 4 1
1 1 12 1
1 2 3 1
1 2 11 1
1 2 27 1
1 4 5 ar
1 4 11 ar
1 5 6 ar
1 5 18 1
1 6 7 1
1 6 8 ar
1 8 9 1
1 8 10 ar
1 10 11 ar
1 10 33 1
1 12 13 1
1 12 14 1
1 12 15 1
1 15 16 1
1 15 17 1
1 15 18 1
1 18 19 1
1 18 23 1
1 19 20 1
1 19 21 1
1 19 22 1
1 23 24 1
1 23 25 1
1 23 26 1
1 27 28 1
1 27 29 1
1 27 30 1
1 30 31 1
1 30 32 1
1 30 33 1
1 33 34 1
1 33 38 1
1 34 35 1
1 34 36 1
1 34 37 1
1 38 39 1
1 38 40 1
1 38 41 1
@<TRIPOS>SUBSTRUCTURE
1 RES1 41

