@<TRIPOS>MOLECULE

41	43	1
SMALL
PartialCharges
****
Generated from molSimplify

@<TRIPOS>ATOM
1 N1	4.1243  5.5772  15.5173 N.pl3	1 RES1 0.0
2 N2	2.4091  5.9193  14.2516 N.pl3	1 RES1 0.0
3 C1	5.1253  5.6315  16.5626 C.ar	1 RES1 0.0
4 C2	6.0485  6.7029  16.5499 C.ar	1 RES1 0.0
5 C3	7.0873  6.6446  17.5072 C.ar	1 RES1 0.0
6 H1	7.7229  7.3222  17.5284 H	1 RES1 0.0
7 C4	7.1806  5.6116  18.4048 C.ar	1 RES1 0.0
8 H2	7.8764  5.601  19.0212 H	1 RES1 0.0
9 C5	6.2467  4.576  18.4029 C.ar	1 RES1 0.0
10 H3	6.3148  3.8971  19.0347 H	1 RES1 0.0
11 C6	5.203  4.5455  17.461 C.ar	1 RES1 0.0
12 C7	4.2633  3.4038  17.4321 C.3	1 RES1 0.0
13 H4	3.3634  3.7274  17.5226 H	1 RES1 0.0
14 H5	4.4625  2.8058  18.1564 H	1 RES1 0.0
15 H6	4.3527  2.9371  16.5981 H	1 RES1 0.0
16 C8	5.9834  7.8022  15.5444 C.3	1 RES1 0.0
17 H7	5.2983  8.4254  15.7948 H	1 RES1 0.0
18 H8	5.7812  7.4336  14.6796 H	1 RES1 0.0
19 H9	6.8298  8.253  15.5078 H	1 RES1 0.0
20 C9	2.9368  6.2349  15.4782 C.3	1 RES1 0.0
21 C10	3.2662  5.068  13.5604 C.2	1 RES1 0.0
22 H10	3.1175  4.7033  12.7168 H	1 RES1 0.0
23 C11	4.3459  4.8704  14.329 C.2	1 RES1 0.0
24 H11	5.0951  4.3625  14.1171 H	1 RES1 0.0
25 C12	1.1448  6.39  13.7196 C.ar	1 RES1 0.0
26 C13	1.1545  7.4654  12.8183 C.ar	1 RES1 0.0
27 C14	-0.0816  7.9255  12.3238 C.ar	1 RES1 0.0
28 H12	-0.1195  8.6561  11.7498 H	1 RES1 0.0
29 C15	-1.2643  7.2545  12.7168 C.ar	1 RES1 0.0
30 H13	-2.0874  7.5542  12.4047 H	1 RES1 0.0
31 C16	-1.2109  6.1526  13.5624 C.ar	1 RES1 0.0
32 H14	-1.998  5.7058  13.7743 H	1 RES1 0.0
33 C17	-0.0214  5.7071  14.0977 C.ar	1 RES1 0.0
34 C18	-0.001  4.527  14.9916 C.3	1 RES1 0.0
35 H15	0.4577  4.7497  15.8045 H	1 RES1 0.0
36 H16	0.4538  3.803  14.5544 H	1 RES1 0.0
37 H17	-0.9018  4.2644  15.1939 H	1 RES1 0.0
38 C19	2.4188  8.1191  12.3296 C.3	1 RES1 0.0
39 H18	2.5724  7.8751  11.4147 H	1 RES1 0.0
40 H19	3.1593  7.8274  12.867 H	1 RES1 0.0
41 H20	2.3323  9.0738  12.3951 H	1 RES1 0.0
@<TRIPOS>BOND
1 1 3 1
1 1 20 1
1 1 23 1
1 2 20 1
1 2 21 1
1 2 25 1
1 3 4 ar
1 3 11 ar
1 4 5 ar
1 4 16 1
1 5 6 1
1 5 7 ar
1 7 8 1
1 7 9 ar
1 9 10 1
1 9 11 ar
1 11 12 1
1 12 13 1
1 12 14 1
1 12 15 1
1 16 17 1
1 16 18 1
1 16 19 1
1 21 22 1
1 21 23 2
1 23 24 1
1 25 26 ar
1 25 33 ar
1 26 27 ar
1 26 38 1
1 27 28 1
1 27 29 ar
1 29 30 1
1 29 31 ar
1 31 32 1
1 31 33 ar
1 33 34 1
1 34 35 1
1 34 36 1
1 34 37 1
1 38 39 1
1 38 40 1
1 38 41 1
@<TRIPOS>SUBSTRUCTURE
1 RES1 41

