@<TRIPOS>MOLECULE

35	37	1
SMALL
PartialCharges
****
Generated from molSimplify

@<TRIPOS>ATOM
1 N1	4.5742  2.7684  3.6949 N.pl3	1 RES1 0.0
2 N2	3.4421  4.5574  4.0729 N.pl3	1 RES1 0.0
3 C1	3.3558  3.323  3.4981 C.3	1 RES1 0.0
4 C2	5.3985  3.6395  4.4018 C.2	1 RES1 0.0
5 H1	6.276  3.4756  4.6643 H	1 RES1 0.0
6 C3	4.7027  4.7478  4.634 C.2	1 RES1 0.0
7 H2	5.0001  5.505  5.0841 H	1 RES1 0.0
8 C4	4.9445  1.4249  3.3307 C.ar	1 RES1 0.0
9 C5	4.6385  0.9017  2.0955 C.ar	1 RES1 0.0
10 H3	4.1818  1.4147  1.4678 H	1 RES1 0.0
11 C6	5.0175  -0.4  1.7936 C.ar	1 RES1 0.0
12 H4	4.8026  -0.7511  0.9604 H	1 RES1 0.0
13 C7	5.7014  -1.1877  2.6943 C.ar	1 RES1 0.0
14 C8	6.0049  -0.6391  3.9202 C.ar	1 RES1 0.0
15 H5	6.4626  -1.1511  4.5481 H	1 RES1 0.0
16 C9	5.6411  0.6575  4.2368 C.ar	1 RES1 0.0
17 H6	5.8697  1.0116  5.0651 H	1 RES1 0.0
18 C10	6.1453  -2.5902  2.3355 C.3	1 RES1 0.0
19 H7	5.4116  -3.0675  1.9421 H	1 RES1 0.0
20 H8	6.4349  -3.0471  3.1277 H	1 RES1 0.0
21 H9	6.8715  -2.5454  1.7097 H	1 RES1 0.0
22 C11	2.3563  5.4897  4.1943 C.ar	1 RES1 0.0
23 C12	2.5779  6.8393  3.9892 C.ar	1 RES1 0.0
24 H10	3.4105  7.1375  3.7016 H	1 RES1 0.0
25 C13	1.5511  7.7451  4.2152 C.ar	1 RES1 0.0
26 H11	1.7054  8.6529  4.0905 H	1 RES1 0.0
27 C14	0.2971  7.3146  4.6259 C.ar	1 RES1 0.0
28 C15	0.0964  5.9559  4.8047 C.ar	1 RES1 0.0
29 H12	-0.7415  5.6526  5.0698 H	1 RES1 0.0
30 C16	1.1084  5.043  4.6005 C.ar	1 RES1 0.0
31 H13	0.9548  4.1351  4.7331 H	1 RES1 0.0
32 C17	-0.8281  8.2875  4.8839 C.3	1 RES1 0.0
33 H14	-1.4021  8.3242  4.1142 H	1 RES1 0.0
34 H15	-0.4645  9.1598  5.0532 H	1 RES1 0.0
35 H16	-1.333  7.9975  5.646 H	1 RES1 0.0
@<TRIPOS>BOND
1 1 3 1
1 1 4 1
1 1 8 1
1 2 3 1
1 2 6 1
1 2 22 1
1 4 5 1
1 4 6 2
1 6 7 1
1 8 9 ar
1 8 16 ar
1 9 10 1
1 9 11 ar
1 11 12 1
1 11 13 ar
1 13 14 ar
1 13 18 1
1 14 15 1
1 14 16 ar
1 16 17 1
1 18 19 1
1 18 20 1
1 18 21 1
1 22 23 ar
1 22 30 ar
1 23 24 1
1 23 25 ar
1 25 26 1
1 25 27 ar
1 27 28 ar
1 27 32 1
1 28 29 1
1 28 30 ar
1 30 31 1
1 32 33 1
1 32 34 1
1 32 35 1
@<TRIPOS>SUBSTRUCTURE
1 RES1 35

