@<TRIPOS>MOLECULE

35	37	1
SMALL
PartialCharges
****
Generated from molSimplify

@<TRIPOS>ATOM
1 N1	1.2839  11.9115  1.2936 N.pl3	1 RES1 0.0
2 C1	-0.0871  9.8443  1.5901 C.ar	1 RES1 0.0
3 C2	-1.105  10.351  0.7988 C.ar	1 RES1 0.0
4 C3	1.2422  10.536  1.7611 C.3	1 RES1 0.0
5 C4	-2.309  9.6639  0.685 C.ar	1 RES1 0.0
6 C5	-0.2833  8.6425  2.2684 C.ar	1 RES1 0.0
7 C6	-2.4972  8.4705  1.3692 C.ar	1 RES1 0.0
8 C7	-1.4808  7.9568  2.163 C.ar	1 RES1 0.0
9 C8	1.017  12.9799  2.075 C.3	1 RES1 0.0
10 C9	1.6986  12.3067  0.0316 C.2	1 RES1 0.0
11 H1	1.9446  10.0585  1.2538 H	1 RES1 0.0
12 H2	0.4073  8.2915  2.8397 H	1 RES1 0.0
13 H3	1.4453  10.5708  2.7318 H	1 RES1 0.0
14 H4	-1.6029  7.1476  2.6404 H	1 RES1 0.0
15 H5	-2.9563  10.0118  0.1329 H	1 RES1 0.0
16 H6	1.892  11.7113  -0.6643 H	1 RES1 0.0
17 H7	-1.038  11.18  0.3404 H	1 RES1 0.0
18 H8	-3.2847  7.9956  1.2953 H	1 RES1 0.0
19 N2	1.2839  14.0482  1.2936 N.pl3	1 RES1 0.0
20 C10	-0.0871  16.1155  1.5901 C.ar	1 RES1 0.0
21 C11	-1.105  15.6087  0.7988 C.ar	1 RES1 0.0
22 C12	1.2422  15.4237  1.7611 C.3	1 RES1 0.0
23 C13	-2.309  16.2958  0.685 C.ar	1 RES1 0.0
24 C14	-0.2833  17.3172  2.2684 C.ar	1 RES1 0.0
25 C15	-2.4972  17.4893  1.3692 C.ar	1 RES1 0.0
26 C16	-1.4808  18.0029  2.163 C.ar	1 RES1 0.0
27 C17	1.6986  13.6531  0.0316 C.2	1 RES1 0.0
28 H9	1.9446  15.9012  1.2538 H	1 RES1 0.0
29 H10	0.4073  17.6682  2.8397 H	1 RES1 0.0
30 H11	1.4453  15.3889  2.7318 H	1 RES1 0.0
31 H12	-1.6029  18.8122  2.6404 H	1 RES1 0.0
32 H13	-2.9563  15.9479  0.1329 H	1 RES1 0.0
33 H14	1.892  14.2484  -0.6643 H	1 RES1 0.0
34 H15	-1.038  14.7798  0.3404 H	1 RES1 0.0
35 H16	-3.2847  17.9641  1.2953 H	1 RES1 0.0
@<TRIPOS>BOND
1 1 4 1
1 1 9 1
1 1 10 1
1 2 3 ar
1 2 4 1
1 2 6 ar
1 3 5 ar
1 3 17 1
1 4 11 1
1 4 13 1
1 5 7 ar
1 5 15 1
1 6 8 ar
1 6 12 1
1 7 8 ar
1 7 18 1
1 8 14 1
1 9 19 1
1 10 16 1
1 10 27 2
1 19 22 1
1 19 27 1
1 20 21 ar
1 20 22 1
1 20 24 ar
1 21 23 ar
1 21 34 1
1 22 28 1
1 22 30 1
1 23 25 ar
1 23 32 1
1 24 26 ar
1 24 29 1
1 25 26 ar
1 25 35 1
1 26 31 1
1 27 33 1
@<TRIPOS>SUBSTRUCTURE
1 RES1 35

