@<TRIPOS>MOLECULE

42	42	1
SMALL
PartialCharges
****
Generated from molSimplify

@<TRIPOS>ATOM
1 O1	10.3515  1.3122  1.103 O.2	1 RES1 0.0
2 N1	7.8847  3.8712  3.7285 N.pl3	1 RES1 0.0
3 N2	6.9474  3.7465  1.7415 N.2	1 RES1 0.0
4 N3	6.0421  4.1321  2.7165 N.pl3	1 RES1 0.0
5 N4	9.2514  3.1403  1.8475 N.am	1 RES1 0.0
6 C1	6.5782  4.2222  3.9405 C.3	1 RES1 0.0
7 C2	8.0397  3.5871  2.4169 C.2	1 RES1 0.0
8 C3	8.9211  3.8149  4.7335 C.3	1 RES1 0.0
9 H1	8.7073  3.1345  5.3761 H	1 RES1 0.0
10 H2	8.9836  4.6646  5.1763 H	1 RES1 0.0
11 H3	9.7607  3.609  4.3165 H	1 RES1 0.0
12 C4	10.1803  4.149  1.1825 C.3	1 RES1 0.0
13 C5	9.7426  5.5448  1.5859 C.3	1 RES1 0.0
14 H4	10.3541  6.1895  1.2241 H	1 RES1 0.0
15 H5	9.7342  5.6133  2.5437 H	1 RES1 0.0
16 H6	8.8604  5.714  1.246 H	1 RES1 0.0
17 C6	10.1051  4.0025  -0.3123 C.3	1 RES1 0.0
18 H7	10.3164  3.0981  -0.5567 H	1 RES1 0.0
19 H8	10.7329  4.6001  -0.7249 H	1 RES1 0.0
20 H9	9.2176  4.2149  -0.6107 H	1 RES1 0.0
21 C7	11.6096  3.9107  1.7 C.3	1 RES1 0.0
22 H10	11.9093  3.0422  1.4226 H	1 RES1 0.0
23 H11	11.6151  3.961  2.6582 H	1 RES1 0.0
24 H12	12.1951  4.5814  1.3405 H	1 RES1 0.0
25 C8	4.6707  4.4436  2.2163 C.3	1 RES1 0.0
26 C9	3.7349  4.7101  3.3412 C.3	1 RES1 0.0
27 H13	2.8803  4.972  2.9915 H	1 RES1 0.0
28 H14	4.0864  5.4159  3.8891 H	1 RES1 0.0
29 H15	3.6347  3.9149  3.8696 H	1 RES1 0.0
30 C10	4.83  5.7236  1.3969 C.3	1 RES1 0.0
31 H16	5.4132  5.5574  0.6528 H	1 RES1 0.0
32 H17	5.206  6.4127  1.9501 H	1 RES1 0.0
33 H18	3.9713  6.006  1.0739 H	1 RES1 0.0
34 C11	4.2017  3.3166  1.3842 C.3	1 RES1 0.0
35 H19	4.1863  2.515  1.9111 H	1 RES1 0.0
36 H20	4.7965  3.1998  0.6398 H	1 RES1 0.0
37 H21	3.3176  3.505  1.0609 H	1 RES1 0.0
38 C12	9.4353  1.7895  1.7184 C.2	1 RES1 0.0
39 C13	8.4234  0.9201  2.4226 C.3	1 RES1 0.0
40 H22	8.6575  -0.0036  2.3038 H	1 RES1 0.0
41 H23	7.5521  1.0792  2.0519 H	1 RES1 0.0
42 H24	8.4164  1.1306  3.3588 H	1 RES1 0.0
@<TRIPOS>BOND
1 1 38 2
1 2 6 1
1 2 7 1
1 2 8 1
1 3 4 1
1 3 7 2
1 4 6 1
1 4 25 1
1 5 7 1
1 5 12 1
1 5 38 am
1 8 9 1
1 8 10 1
1 8 11 1
1 12 13 1
1 12 17 1
1 12 21 1
1 13 14 1
1 13 15 1
1 13 16 1
1 17 18 1
1 17 19 1
1 17 20 1
1 21 22 1
1 21 23 1
1 21 24 1
1 25 26 1
1 25 30 1
1 25 34 1
1 26 27 1
1 26 28 1
1 26 29 1
1 30 31 1
1 30 32 1
1 30 33 1
1 34 35 1
1 34 36 1
1 34 37 1
1 38 39 1
1 39 40 1
1 39 41 1
1 39 42 1
@<TRIPOS>SUBSTRUCTURE
1 RES1 42

