@<TRIPOS>MOLECULE

70	72	1
SMALL
PartialCharges
****
Generated from molSimplify

@<TRIPOS>ATOM
1 N1	1.9639  1.3296  18.8893 N.pl3	1 RES1 0.0
2 N2	2.672  2.7755  17.2692 N.pl3	1 RES1 0.0
3 C1	1.9653  1.6867  17.6013 C.3	1 RES1 0.0
4 C2	2.6505  2.0722  19.9676 C.3	1 RES1 0.0
5 H1	3.5321  1.6581  20.1438 H	1 RES1 0.0
6 H2	2.1144  2.0195  20.7983 H	1 RES1 0.0
7 C3	2.8412  3.5164  19.581 C.3	1 RES1 0.0
8 H3	1.9725  3.9893  19.6403 H	1 RES1 0.0
9 H4	3.4647  3.9471  20.2193 H	1 RES1 0.0
10 C4	3.383  3.6459  18.1911 C.3	1 RES1 0.0
11 H5	3.297  4.5856  17.889 H	1 RES1 0.0
12 H6	4.3449  3.411  18.1893 H	1 RES1 0.0
13 C5	1.4192  0.0542  19.3149 C.ar	1 RES1 0.0
14 C6	0.2451  0.0316  20.0755 C.ar	1 RES1 0.0
15 C7	-0.1892  -1.2183  20.5304 C.ar	1 RES1 0.0
16 H7	-0.9791  -1.268  21.0572 H	1 RES1 0.0
17 C8	0.4917  -2.3719  20.2391 C.ar	1 RES1 0.0
18 H8	0.1548  -3.2092  20.5376 H	1 RES1 0.0
19 C9	1.6686  -2.3207  19.5109 C.ar	1 RES1 0.0
20 H9	2.1474  -3.1219  19.3311 H	1 RES1 0.0
21 C10	2.1531  -1.1084  19.0401 C.ar	1 RES1 0.0
22 C11	-0.5376  1.271  20.462 C.3	1 RES1 0.0
23 H10	-0.2122  2.0315  19.8992 H	1 RES1 0.0
24 C12	-0.3082  1.6355  21.9329 C.3	1 RES1 0.0
25 H11	0.6537  1.7273  22.1001 H	1 RES1 0.0
26 H12	-0.6737  0.9292  22.5046 H	1 RES1 0.0
27 H13	-0.7569  2.4833  22.1324 H	1 RES1 0.0
28 C13	-2.0456  1.1174  20.2283 C.3	1 RES1 0.0
29 H14	-2.2047  0.8042  19.3131 H	1 RES1 0.0
30 H15	-2.4857  1.9833  20.3577 H	1 RES1 0.0
31 H16	-2.4111  0.4668  20.863 H	1 RES1 0.0
32 C14	3.5049  -1.0873  18.3475 C.3	1 RES1 0.0
33 H17	3.5536  -0.2575  17.7919 H	1 RES1 0.0
34 C15	3.7486  -2.271  17.4341 C.3	1 RES1 0.0
35 H18	4.6216  -2.1731  16.999 H	1 RES1 0.0
36 H19	3.0462  -2.3071  16.7508 H	1 RES1 0.0
37 H20	3.7371  -3.0978  17.9591 H	1 RES1 0.0
38 C16	4.6201  -1.0241  19.3796 C.3	1 RES1 0.0
39 H21	5.4788  -0.893  18.9265 H	1 RES1 0.0
40 H22	4.6445  -1.8629  19.8867 H	1 RES1 0.0
41 H23	4.4567  -0.2771  19.9927 H	1 RES1 0.0
42 C17	2.8698  3.1219  15.8698 C.ar	1 RES1 0.0
43 C18	2.0112  4.0812  15.2728 C.ar	1 RES1 0.0
44 C19	2.2606  4.3974  13.9422 C.ar	1 RES1 0.0
45 H24	1.6987  5.0269  13.5071 H	1 RES1 0.0
46 C20	3.3013  3.8236  13.2338 C.ar	1 RES1 0.0
47 H25	3.4361  4.048  12.3204 H	1 RES1 0.0
48 C21	4.1385  2.9276  13.8559 C.ar	1 RES1 0.0
49 H26	4.8552  2.5436  13.3651 H	1 RES1 0.0
50 C22	3.9607  2.5707  15.1919 C.ar	1 RES1 0.0
51 C23	0.9332  4.7935  16.0352 C.3	1 RES1 0.0
52 H27	0.7583  4.2784  16.8749 H	1 RES1 0.0
53 C24	-0.3856  4.8944  15.2638 C.3	1 RES1 0.0
54 H28	-0.1993  4.92  14.3018 H	1 RES1 0.0
55 H29	-0.8558  5.7121  15.5281 H	1 RES1 0.0
56 H30	-0.9432  4.1158  15.467 H	1 RES1 0.0
57 C25	1.4177  6.2015  16.4344 C.3	1 RES1 0.0
58 H31	2.1803  6.1232  17.0457 H	1 RES1 0.0
59 H32	0.6895  6.6835  16.8821 H	1 RES1 0.0
60 H33	1.6901  6.6925  15.6324 H	1 RES1 0.0
61 C26	5.0115  1.6957  15.8788 C.3	1 RES1 0.0
62 H34	4.613  1.3313  16.7203 H	1 RES1 0.0
63 C27	5.5075  0.5316  15.0462 C.3	1 RES1 0.0
64 H35	4.742  0.0105  14.7262 H	1 RES1 0.0
65 H36	6.0837  -0.0407  15.5965 H	1 RES1 0.0
66 H37	6.0164  0.8689  14.2803 H	1 RES1 0.0
67 C28	6.2443  2.5406  16.2564 C.3	1 RES1 0.0
68 H38	6.8894  1.9788  16.7346 H	1 RES1 0.0
69 H39	5.9676  3.283  16.8317 H	1 RES1 0.0
70 H40	6.66  2.8929  15.4418 H	1 RES1 0.0
@<TRIPOS>BOND
1 1 3 1
1 1 4 1
1 1 13 1
1 2 3 1
1 2 10 1
1 2 42 1
1 4 5 1
1 4 6 1
1 4 7 1
1 7 8 1
1 7 9 1
1 7 10 1
1 10 11 1
1 10 12 1
1 13 14 ar
1 13 21 ar
1 14 15 ar
1 14 22 1
1 15 16 1
1 15 17 ar
1 17 18 1
1 17 19 ar
1 19 20 1
1 19 21 ar
1 21 32 1
1 22 23 1
1 22 24 1
1 22 28 1
1 24 25 1
1 24 26 1
1 24 27 1
1 28 29 1
1 28 30 1
1 28 31 1
1 32 33 1
1 32 34 1
1 32 38 1
1 34 35 1
1 34 36 1
1 34 37 1
1 38 39 1
1 38 40 1
1 38 41 1
1 42 43 ar
1 42 50 ar
1 43 44 ar
1 43 51 1
1 44 45 1
1 44 46 ar
1 46 47 1
1 46 48 ar
1 48 49 1
1 48 50 ar
1 50 61 1
1 51 52 1
1 51 53 1
1 51 57 1
1 53 54 1
1 53 55 1
1 53 56 1
1 57 58 1
1 57 59 1
1 57 60 1
1 61 62 1
1 61 63 1
1 61 67 1
1 63 64 1
1 63 65 1
1 63 66 1
1 67 68 1
1 67 69 1
1 67 70 1
@<TRIPOS>SUBSTRUCTURE
1 RES1 70

