@<TRIPOS>MOLECULE

36	38	1
SMALL
PartialCharges
****
Generated from molSimplify

@<TRIPOS>ATOM
1 C1	9.2807  7.9926  12.0717 C.3	1 RES1 0.0
2 C2	11.4593  8.0035  11.5562 C.2	1 RES1 0.0
3 H1	12.3372  7.6977  11.361 H	1 RES1 0.0
4 C3	11.0502  9.2758  11.607 C.2	1 RES1 0.0
5 H2	11.5836  10.0455  11.4503 H	1 RES1 0.0
6 C4	10.3866  5.7567  11.8916 C.3	1 RES1 0.0
7 H3	10.8684  5.4199  11.0956 H	1 RES1 0.0
8 H4	9.4585  5.415  11.849 H	1 RES1 0.0
9 C5	11.045  5.2168  13.1193 C.3	1 RES1 0.0
10 H5	11.9652  5.5496  13.1701 H	1 RES1 0.0
11 H6	11.0521  4.2381  13.0835 H	1 RES1 0.0
12 H7	10.5485  5.5103  13.9125 H	1 RES1 0.0
13 C6	8.8933  10.4519  12.091 C.3	1 RES1 0.0
14 H8	9.4399  11.1606  12.513 H	1 RES1 0.0
15 H9	8.1404  10.2477  12.7013 H	1 RES1 0.0
16 C7	8.3453  10.9645  10.7932 C.2	1 RES1 0.0
17 C8	7.4612  11.9646  10.5581 C.2	1 RES1 0.0
18 H10	7.0324  12.5173  11.2015 H	1 RES1 0.0
19 C9	6.5132  12.8599  8.4135 C.ar	1 RES1 0.0
20 C10	5.4642  13.5663  8.9964 C.ar	1 RES1 0.0
21 H11	5.2666  13.4541  9.9188 H	1 RES1 0.0
22 C11	4.7158  14.4297  8.2265 C.ar	1 RES1 0.0
23 H12	4.0042  14.9272  8.6115 H	1 RES1 0.0
24 C12	5.0179  14.5557  6.893 C.ar	1 RES1 0.0
25 C13	6.04  13.8479  6.2936 C.ar	1 RES1 0.0
26 H13	6.2236  13.9522  5.367 H	1 RES1 0.0
27 C14	6.7876  12.9869  7.0621 C.ar	1 RES1 0.0
28 H14	7.4897  12.4829  6.6676 H	1 RES1 0.0
29 N1	10.3556  7.2169  11.843 N.pl3	1 RES1 0.0
30 N2	9.708  9.2609  11.9291 N.pl3	1 RES1 0.0
31 N3	8.7112  10.431  9.5903 N.2	1 RES1 0.0
32 N4	8.0863  11.0566  8.628 N.2	1 RES1 0.0
33 N5	7.3184  12.0114  9.2141 N.pl3	1 RES1 0.0
34 N6	4.2662  15.5237  6.086 N.pl3	1 RES1 0.0
35 O1	3.4228  16.2171  6.6387 O.2	1 RES1 0.0
36 O2	4.5454  15.6178  4.8937 O.2	1 RES1 0.0
@<TRIPOS>BOND
1 1 29 1
1 1 30 1
1 2 3 1
1 2 4 2
1 2 29 1
1 4 5 1
1 4 30 1
1 6 7 1
1 6 8 1
1 6 9 1
1 6 29 1
1 9 10 1
1 9 11 1
1 9 12 1
1 13 14 1
1 13 15 1
1 13 16 1
1 13 30 1
1 16 17 2
1 16 31 1
1 17 18 1
1 17 33 1
1 19 20 ar
1 19 27 ar
1 19 33 1
1 20 21 1
1 20 22 ar
1 22 23 1
1 22 24 ar
1 24 25 ar
1 24 34 1
1 25 26 1
1 25 27 ar
1 27 28 1
1 31 32 2
1 32 33 1
1 34 35 2
1 34 36 2
@<TRIPOS>SUBSTRUCTURE
1 RES1 36

