@<TRIPOS>MOLECULE

105	110	1
SMALL
PartialCharges
****
Generated from molSimplify

@<TRIPOS>ATOM
1 C1	8.1117  4.6054  0.9741 C.3	1 RES1 0.0
2 C2	8.0696  3.5171  3.2586 C.ar	1 RES1 0.0
3 N1	8.3138  4.5896  2.3273 N.pl3	1 RES1 0.0
4 N2	8.6111  5.8063  0.5645 N.pl3	1 RES1 0.0
5 C3	8.7221  6.2817  -0.8315 C.ar	1 RES1 0.0
6 C4	6.9794  3.6455  4.139 C.ar	1 RES1 0.0
7 C5	8.9484  5.7364  2.7267 C.2	1 RES1 0.0
8 C6	9.513  6.3448  3.9271 C.ar	1 RES1 0.0
9 C7	10.7157  8.1653  5.6267 C.ar	1 RES1 0.0
10 H1	11.0933  8.7714  6.2217 H	1 RES1 0.0
11 C8	8.8977  1.6313  4.461 C.ar	1 RES1 0.0
12 H2	9.5197  0.9486  4.569 H	1 RES1 0.0
13 C9	9.151  6.5092  1.6344 C.2	1 RES1 0.0
14 C10	9.0363  2.5145  3.4033 C.ar	1 RES1 0.0
15 C11	9.6318  6.0428  5.268 C.ar	1 RES1 0.0
16 H3	9.3359  5.2272  5.6002 H	1 RES1 0.0
17 C12	9.8046  7.7349  2.0073 C.2	1 RES1 0.0
18 C13	11.2615  9.7087  3.6112 C.3	1 RES1 0.0
19 C14	10.0366  7.5592  3.4645 C.ar	1 RES1 0.0
20 C15	10.2162  2.3928  2.4598 C.3	1 RES1 0.0
21 C16	9.9283  5.991  -1.5019 C.ar	1 RES1 0.0
22 C17	7.8568  1.7439  5.3597 C.ar	1 RES1 0.0
23 H4	7.803  1.1604  6.0791 H	1 RES1 0.0
24 C18	10.5426  10.1007  2.3171 C.3	1 RES1 0.0
25 C19	5.9266  4.7158  3.9984 C.3	1 RES1 0.0
26 C20	6.386  7.3158  -0.5523 C.3	1 RES1 0.0
27 C21	6.9139  2.7015  5.1946 C.ar	1 RES1 0.0
28 H5	6.201  2.7398  5.7938 H	1 RES1 0.0
29 C22	10.2071  6.9914  6.1056 C.ar	1 RES1 0.0
30 H6	10.2455  6.8224  7.0206 H	1 RES1 0.0
31 C23	10.6848  8.4762  4.2654 C.ar	1 RES1 0.0
32 C24	7.643  7.0162  -1.343 C.ar	1 RES1 0.0
33 C25	10.0221  8.9471  1.4877 C.2	1 RES1 0.0
34 H7	9.8493  9.0845  0.5849 H	1 RES1 0.0
35 C26	10.0321  6.516  -2.7838 C.ar	1 RES1 0.0
36 H8	10.791  6.3267  -3.2892 H	1 RES1 0.0
37 C27	7.8762  7.5592  -2.6472 C.ar	1 RES1 0.0
38 H9	7.2346  8.0932  -3.0569 H	1 RES1 0.0
39 C28	6.0807  5.8153  5.0499 C.3	1 RES1 0.0
40 H10	6.112  5.4187  5.9242 H	1 RES1 0.0
41 H11	5.333  6.4146  4.997 H	1 RES1 0.0
42 H12	6.8921  6.3019  4.889 H	1 RES1 0.0
43 C29	10.5481  0.9688  2.0868 C.3	1 RES1 0.0
44 H13	11.2563  0.9643  1.4367 H	1 RES1 0.0
45 H14	9.7704  0.5475  1.7139 H	1 RES1 0.0
46 H15	10.8284  0.4912  2.8694 H	1 RES1 0.0
47 C30	9.0985  7.2685  -3.3055 C.ar	1 RES1 0.0
48 H16	9.244  7.6335  -4.1492 H	1 RES1 0.0
49 C31	11.4827  3.0349  3.0895 C.3	1 RES1 0.0
50 H17	11.7491  2.528  3.8598 H	1 RES1 0.0
51 H18	11.287  3.9384  3.3544 H	1 RES1 0.0
52 H19	12.1952  3.0372  2.4475 H	1 RES1 0.0
53 C32	4.5131  4.1209  4.0514 C.3	1 RES1 0.0
54 H20	4.4345  3.4247  3.3931 H	1 RES1 0.0
55 H21	3.8696  4.8104  3.8659 H	1 RES1 0.0
56 H22	4.3514  3.7582  4.9236 H	1 RES1 0.0
57 C33	11.081  5.2047  -0.8804 C.3	1 RES1 0.0
58 C34	6.3968  8.6745  0.055 C.3	1 RES1 0.0
59 H23	7.0923  8.7263  0.7153 H	1 RES1 0.0
60 H24	5.5494  8.848  0.4687 H	1 RES1 0.0
61 H25	6.558  9.3301  -0.6297 H	1 RES1 0.0
62 C35	12.0955  6.16  -0.3892 C.3	1 RES1 0.0
63 H26	12.6546  5.7297  0.2609 H	1 RES1 0.0
64 H27	11.657  6.9125  0.0163 H	1 RES1 0.0
65 H28	12.6343  6.4619  -1.1229 H	1 RES1 0.0
66 C36	5.1401  7.0928  -1.3919 C.3	1 RES1 0.0
67 H29	4.362  7.3181  -0.8763 H	1 RES1 0.0
68 H30	5.0934  6.1735  -1.6589 H	1 RES1 0.0
69 H31	5.1769  7.6516  -2.1724 H	1 RES1 0.0
70 C37	9.3633  11.1574  2.6493 C.3	1 RES1 0.0
71 C38	12.8606  9.4586  3.3177 C.3	1 RES1 0.0
72 C39	13.1712  8.4582  2.2886 C.3	1 RES1 0.0
73 H32	14.0883  8.1855  2.3721 H	1 RES1 0.0
74 H33	13.0285  8.839  1.4184 H	1 RES1 0.0
75 H34	12.5997  7.6944  2.4007 H	1 RES1 0.0
76 C40	10.0521  12.4124  3.2097 C.3	1 RES1 0.0
77 H35	9.4316  13.1446  3.2097 H	1 RES1 0.0
78 H36	10.808  12.6354  2.6595 H	1 RES1 0.0
79 H37	10.3473  12.2434  4.1064 H	1 RES1 0.0
80 C41	8.3336  10.5693  3.5011 C.3	1 RES1 0.0
81 H38	8.6703  10.4837  4.3958 H	1 RES1 0.0
82 H39	8.0941  9.7041  3.1649 H	1 RES1 0.0
83 H40	7.5586  11.1371  3.5052 H	1 RES1 0.0
84 C42	13.4663  10.8149  2.8286 C.3	1 RES1 0.0
85 H41	14.4243  10.7744  2.8816 H	1 RES1 0.0
86 H42	13.1453  11.5292  3.385 H	1 RES1 0.0
87 H43	13.2013  10.9749  1.9197 H	1 RES1 0.0
88 C43	8.6816  11.5877  1.3185 C.3	1 RES1 0.0
89 H44	8.1855  10.8487  0.9599 H	1 RES1 0.0
90 H45	9.3534  11.8604  0.6888 H	1 RES1 0.0
91 H46	8.086  12.3223  1.4877 H	1 RES1 0.0
92 C44	13.5888  9.1251  4.6301 C.3	1 RES1 0.0
93 H47	13.3877  8.2216  4.8869 H	1 RES1 0.0
94 H48	13.2958  9.7267  5.321 H	1 RES1 0.0
95 H49	14.5355  9.2197  4.5058 H	1 RES1 0.0
96 C45	11.7132  4.2967  -1.9218 C.3	1 RES1 0.0
97 H50	12.3109  4.8081  -2.4699 H	1 RES1 0.0
98 H51	11.0253  3.9114  -2.4679 H	1 RES1 0.0
99 H52	12.2014  3.5982  -1.4816 H	1 RES1 0.0
100 H53	9.9006  2.8389  1.5692 H	1 RES1 0.0
101 H54	5.916  5.1371  3.2403 H	1 RES1 0.0
102 H55	6.0851  6.5791  0.0611 H	1 RES1 0.0
103 H56	10.8735  4.371  -0.3057 H	1 RES1 0.0
104 H57	11.4635  9.9587  1.8953 H	1 RES1 0.0
105 H58	10.5415  10.3418  3.9536 H	1 RES1 0.0
@<TRIPOS>BOND
1 1 3 1
1 1 4 1
1 2 3 1
1 2 6 ar
1 2 14 ar
1 3 7 1
1 4 5 1
1 4 13 1
1 5 21 ar
1 5 32 ar
1 6 25 1
1 6 27 ar
1 7 8 1
1 7 13 2
1 8 15 ar
1 8 19 ar
1 9 10 1
1 9 29 ar
1 9 31 ar
1 11 12 1
1 11 14 ar
1 11 22 ar
1 13 17 1
1 14 20 1
1 15 16 1
1 15 29 ar
1 17 19 1
1 17 33 2
1 18 24 1
1 18 31 1
1 18 71 1
1 18 105 1
1 19 31 ar
1 20 43 1
1 20 49 1
1 20 100 1
1 21 35 ar
1 21 57 1
1 22 23 1
1 22 27 ar
1 24 33 1
1 24 70 1
1 24 104 1
1 25 39 1
1 25 53 1
1 25 101 1
1 26 32 1
1 26 58 1
1 26 66 1
1 26 102 1
1 27 28 1
1 29 30 1
1 32 37 ar
1 33 34 1
1 35 36 1
1 35 47 ar
1 37 38 1
1 37 47 ar
1 39 40 1
1 39 41 1
1 39 42 1
1 43 44 1
1 43 45 1
1 43 46 1
1 47 48 1
1 49 50 1
1 49 51 1
1 49 52 1
1 53 54 1
1 53 55 1
1 53 56 1
1 57 62 1
1 57 96 1
1 57 103 1
1 58 59 1
1 58 60 1
1 58 61 1
1 62 63 1
1 62 64 1
1 62 65 1
1 66 67 1
1 66 68 1
1 66 69 1
1 70 76 1
1 70 80 1
1 70 88 1
1 71 72 1
1 71 84 1
1 71 92 1
1 72 73 1
1 72 74 1
1 72 75 1
1 76 77 1
1 76 78 1
1 76 79 1
1 80 81 1
1 80 82 1
1 80 83 1
1 84 85 1
1 84 86 1
1 84 87 1
1 88 89 1
1 88 90 1
1 88 91 1
1 92 93 1
1 92 94 1
1 92 95 1
1 96 97 1
1 96 98 1
1 96 99 1
@<TRIPOS>SUBSTRUCTURE
1 RES1 105

