@<TRIPOS>MOLECULE

65	67	1
SMALL
PartialCharges
****
Generated from molSimplify

@<TRIPOS>ATOM
1 Br1	-0.7498  12.6882  1.9905 Br	1 RES1 0.0
2 Br2	-0.8667  9.3064  3.2773 Br	1 RES1 0.0
3 N1	1.682  12.4008  3.4892 N.pl3	1 RES1 0.0
4 N2	1.6413  10.3432  4.1642 N.pl3	1 RES1 0.0
5 C1	2.409  11.4753  4.1824 C.3	1 RES1 0.0
6 C2	0.4861  11.8293  3.0567 C.2	1 RES1 0.0
7 C3	0.4641  10.573  3.488 C.2	1 RES1 0.0
8 C4	2.1076  13.7202  3.0567 C.ar	1 RES1 0.0
9 C5	2.9474  13.8064  1.9369 C.ar	1 RES1 0.0
10 C6	3.1814  15.07  1.4146 C.ar	1 RES1 0.0
11 H1	3.7444  15.1672  0.6549 H	1 RES1 0.0
12 C7	2.6098  16.1906  1.9824 C.ar	1 RES1 0.0
13 H2	2.7559  17.0452  1.5926 H	1 RES1 0.0
14 C8	1.832  16.0768  3.1061 C.ar	1 RES1 0.0
15 H3	1.4644  16.86  3.4959 H	1 RES1 0.0
16 C9	1.5676  14.8371  3.6937 C.ar	1 RES1 0.0
17 C10	3.5732  12.5776  1.2781 C.3	1 RES1 0.0
18 H4	3.503  11.8165  1.923 H	1 RES1 0.0
19 C11	2.8421  12.1888  0.0237 C.3	1 RES1 0.0
20 H5	1.8972  12.0329  0.2315 H	1 RES1 0.0
21 H6	3.2353  11.3708  -0.3423 H	1 RES1 0.0
22 H7	2.9162  12.9114  -0.6351 H	1 RES1 0.0
23 C12	5.0576  12.816  0.9932 C.3	1 RES1 0.0
24 H8	5.151  13.4946  0.2928 H	1 RES1 0.0
25 H9	5.4719  11.9797  0.6964 H	1 RES1 0.0
26 H10	5.5005  13.1278  1.8103 H	1 RES1 0.0
27 C13	0.7355  14.771  4.958 C.3	1 RES1 0.0
28 H11	0.7329  13.8229  5.2785 H	1 RES1 0.0
29 C14	-0.71  15.191  4.7186 C.3	1 RES1 0.0
30 H12	-1.2026  15.1653  5.5673 H	1 RES1 0.0
31 H13	-1.1278  14.5785  4.0795 H	1 RES1 0.0
32 H14	-0.7297  16.1025  4.3585 H	1 RES1 0.0
33 C15	1.3642  15.6349  6.0501 C.3	1 RES1 0.0
34 H15	2.2605  15.2974  6.2578 H	1 RES1 0.0
35 H16	0.8074  15.6  6.8553 H	1 RES1 0.0
36 H17	1.4286  16.561  5.7355 H	1 RES1 0.0
37 C16	2.0902  9.0416  4.6157 C.ar	1 RES1 0.0
38 C17	2.4902  8.1173  3.6383 C.ar	1 RES1 0.0
39 C18	2.9558  6.8793  4.1013 C.ar	1 RES1 0.0
40 H18	3.265  6.2338  3.4761 H	1 RES1 0.0
41 C19	2.9732  6.5786  5.4328 C.ar	1 RES1 0.0
42 H19	3.3022  5.7349  5.7236 H	1 RES1 0.0
43 C20	2.5194  7.4882  6.3547 C.ar	1 RES1 0.0
44 H20	2.5242  7.2516  7.2747 H	1 RES1 0.0
45 C21	2.0513  8.7463  5.9848 C.ar	1 RES1 0.0
46 C22	2.4239  8.3539  2.1268 C.3	1 RES1 0.0
47 H21	1.9968  9.2452  1.9725 H	1 RES1 0.0
48 C23	1.5878  7.3067  1.4146 C.3	1 RES1 0.0
49 H22	0.7084  7.2443  1.8419 H	1 RES1 0.0
50 H23	2.0377  6.4373  1.468 H	1 RES1 0.0
51 H24	1.477  7.5597  0.4748 H	1 RES1 0.0
52 C24	3.8151  8.3906  1.5175 C.3	1 RES1 0.0
53 H25	4.3332  9.1131  1.929 H	1 RES1 0.0
54 H26	3.7444  8.5483  0.552 H	1 RES1 0.0
55 H27	4.2637  7.5341  1.6757 H	1 RES1 0.0
56 C25	1.4837  9.6964  7.0037 C.3	1 RES1 0.0
57 H28	1.5083  10.617  6.6159 H	1 RES1 0.0
58 C26	0.018  9.3351  7.2727 C.3	1 RES1 0.0
59 H29	-0.0382  8.4089  7.5913 H	1 RES1 0.0
60 H30	-0.4996  9.4286  6.4457 H	1 RES1 0.0
61 H31	-0.3464  9.9366  7.9553 H	1 RES1 0.0
62 C27	2.265  9.7165  8.3055 C.3	1 RES1 0.0
63 H32	3.21  9.8944  8.1175 H	1 RES1 0.0
64 H33	2.1795  8.8472  8.7506 H	1 RES1 0.0
65 H34	1.9097  10.419  8.8891 H	1 RES1 0.0
@<TRIPOS>BOND
1 1 6 1
1 2 7 1
1 3 5 1
1 3 6 1
1 3 8 1
1 4 5 1
1 4 7 1
1 4 37 1
1 6 7 2
1 8 9 ar
1 8 16 ar
1 9 10 ar
1 9 17 1
1 10 11 1
1 10 12 ar
1 12 13 1
1 12 14 ar
1 14 15 1
1 14 16 ar
1 16 27 1
1 17 18 1
1 17 19 1
1 17 23 1
1 19 20 1
1 19 21 1
1 19 22 1
1 23 24 1
1 23 25 1
1 23 26 1
1 27 28 1
1 27 29 1
1 27 33 1
1 29 30 1
1 29 31 1
1 29 32 1
1 33 34 1
1 33 35 1
1 33 36 1
1 37 38 ar
1 37 45 ar
1 38 39 ar
1 38 46 1
1 39 40 1
1 39 41 ar
1 41 42 1
1 41 43 ar
1 43 44 1
1 43 45 ar
1 45 56 1
1 46 47 1
1 46 48 1
1 46 52 1
1 48 49 1
1 48 50 1
1 48 51 1
1 52 53 1
1 52 54 1
1 52 55 1
1 56 57 1
1 56 58 1
1 56 62 1
1 58 59 1
1 58 60 1
1 58 61 1
1 62 63 1
1 62 64 1
1 62 65 1
@<TRIPOS>SUBSTRUCTURE
1 RES1 65

