@<TRIPOS>MOLECULE

33	34	1
SMALL
PartialCharges
****
Generated from molSimplify

@<TRIPOS>ATOM
1 N1	4.6468  3.0065  10.1199 N.2	1 RES1 0.0
2 N2	4.7071  4.3663  10.051 N.pl3	1 RES1 0.0
3 C1	5.0279  4.8377  8.8247 C.3	1 RES1 0.0
4 N3	5.2071  3.6864  8.0975 N.pl3	1 RES1 0.0
5 C2	4.9804  2.6133  8.9257 C.2	1 RES1 0.0
6 H1	5.0572  1.704  8.6609 H	1 RES1 0.0
7 C3	4.3927  5.091  11.3279 C.3	1 RES1 0.0
8 C4	5.3304  4.502  12.3843 C.3	1 RES1 0.0
9 H2	5.1495  3.5451  12.4838 H	1 RES1 0.0
10 H3	5.1824  4.9553  13.2401 H	1 RES1 0.0
11 H4	6.2609  4.6321  12.1041 H	1 RES1 0.0
12 C5	4.6056  6.5669  11.2085 C.3	1 RES1 0.0
13 H5	5.526  6.7432  10.9237 H	1 RES1 0.0
14 H6	4.4457  6.9908  12.0781 H	1 RES1 0.0
15 H7	3.9832  6.9348  10.5471 H	1 RES1 0.0
16 C6	2.933  4.7538  11.6861 C.3	1 RES1 0.0
17 H8	2.3435  5.035  10.9574 H	1 RES1 0.0
18 H9	2.6826  5.2239  12.5098 H	1 RES1 0.0
19 H10	2.8462  3.7871  11.8239 H	1 RES1 0.0
20 C7	5.7655  3.5702  6.7379 C.3	1 RES1 0.0
21 H11	5.6613  2.6357  6.4287 H	1 RES1 0.0
22 H12	6.7344  3.7689  6.7731 H	1 RES1 0.0
23 C8	5.1138  4.495  5.7321 C.ar	1 RES1 0.0
24 C9	5.8715  5.4323  5.0952 C.ar	1 RES1 0.0
25 H13	6.7983  5.5009  5.2911 H	1 RES1 0.0
26 C10	5.2975  6.2927  4.1567 C.ar	1 RES1 0.0
27 H14	5.8249  6.9726  3.7555 H	1 RES1 0.0
28 C11	3.9594  6.1612  3.8091 C.ar	1 RES1 0.0
29 H15	3.5747  6.7194  3.1447 H	1 RES1 0.0
30 C12	3.1853  5.1861  4.4583 C.ar	1 RES1 0.0
31 H16	2.2603  5.105  4.2592 H	1 RES1 0.0
32 C13	3.7757  4.3355  5.3998 C.ar	1 RES1 0.0
33 H17	3.2612  3.6514  5.8101 H	1 RES1 0.0
@<TRIPOS>BOND
1 1 2 1
1 1 5 2
1 2 3 1
1 2 7 1
1 3 4 1
1 4 5 1
1 4 20 1
1 5 6 1
1 7 8 1
1 7 12 1
1 7 16 1
1 8 9 1
1 8 10 1
1 8 11 1
1 12 13 1
1 12 14 1
1 12 15 1
1 16 17 1
1 16 18 1
1 16 19 1
1 20 21 1
1 20 22 1
1 20 23 1
1 23 24 ar
1 23 32 ar
1 24 25 1
1 24 26 ar
1 26 27 1
1 26 28 ar
1 28 29 1
1 28 30 ar
1 30 31 1
1 30 32 ar
1 32 33 1
@<TRIPOS>SUBSTRUCTURE
1 RES1 33

