@<TRIPOS>MOLECULE

58	60	1
SMALL
PartialCharges
****
Generated from molSimplify

@<TRIPOS>ATOM
1 N1	11.0969  6.6889  1.5786 N.pl3	1 RES1 0.0
2 N2	8.9918  7.2054  1.7732 N.pl3	1 RES1 0.0
3 C1	10.1274  6.9709  2.457 C.3	1 RES1 0.0
4 C2	10.6652  6.8914  0.1797 C.3	1 RES1 0.0
5 H1	10.9365  6.1319  -0.3951 H	1 RES1 0.0
6 H2	11.0338  7.7314  -0.1941 H	1 RES1 0.0
7 C3	9.1487  6.9652  0.3263 C.3	1 RES1 0.0
8 H3	8.7708  7.7087  -0.2061 H	1 RES1 0.0
9 H4	8.7176  6.1172  0.0528 H	1 RES1 0.0
10 C4	12.429  6.2401  1.8638 C.ar	1 RES1 0.0
11 C5	13.4114  7.1653  2.2395 C.ar	1 RES1 0.0
12 C6	14.7148  6.687  2.4212 C.ar	1 RES1 0.0
13 H5	15.4034  7.2918  2.6704 H	1 RES1 0.0
14 C7	15.0189  5.3472  2.2436 C.ar	1 RES1 0.0
15 H6	15.9092  5.0429  2.3741 H	1 RES1 0.0
16 C8	14.0289  4.4497  1.8751 C.ar	1 RES1 0.0
17 H7	14.2475  3.5316  1.761 H	1 RES1 0.0
18 C9	12.7137  4.8763  1.668 C.ar	1 RES1 0.0
19 C10	7.6769  7.1752  2.3558 C.ar	1 RES1 0.0
20 C11	6.8901  8.3283  2.3347 C.ar	1 RES1 0.0
21 C12	5.5815  8.2437  2.8218 C.ar	1 RES1 0.0
22 H8	5.0388  9.0235  2.822 H	1 RES1 0.0
23 C13	5.0534  7.0531  3.3043 C.ar	1 RES1 0.0
24 C14	5.8595  5.9221  3.2993 C.ar	1 RES1 0.0
25 H9	5.5101  5.1044  3.6343 H	1 RES1 0.0
26 C15	7.1653  5.9534  2.8168 C.ar	1 RES1 0.0
27 C16	13.1128  8.6381  2.4131 C.3	1 RES1 0.0
28 H10	12.1218  8.7576  2.3536 H	1 RES1 0.0
29 C17	13.5621  9.1503  3.7845 C.3	1 RES1 0.0
30 H11	13.1586  8.5986  4.4875 H	1 RES1 0.0
31 H12	13.2752  10.0804  3.8949 H	1 RES1 0.0
32 H13	14.5392  9.0997  3.8489 H	1 RES1 0.0
33 C18	13.7489  9.4485  1.2851 C.3	1 RES1 0.0
34 H14	14.7221  9.3415  1.3148 H	1 RES1 0.0
35 H15	13.5209  10.3958  1.3948 H	1 RES1 0.0
36 H16	13.4121  9.1277  0.4224 H	1 RES1 0.0
37 C19	11.6537  3.8704  1.2538 C.3	1 RES1 0.0
38 H17	10.7796  4.3521  1.2024 H	1 RES1 0.0
39 C20	11.5088  2.7507  2.2828 C.3	1 RES1 0.0
40 H18	12.3268  2.2114  2.2957 H	1 RES1 0.0
41 H19	10.7474  2.182  2.042 H	1 RES1 0.0
42 H20	11.3595  3.1401  3.1694 H	1 RES1 0.0
43 C21	11.9414  3.2737  -0.1339 C.3	1 RES1 0.0
44 H21	12.0336  3.998  -0.7885 H	1 RES1 0.0
45 H22	11.2015  2.6885  -0.3968 H	1 RES1 0.0
46 H23	12.7725  2.7553  -0.1005 H	1 RES1 0.0
47 C22	7.3962  9.6247  1.7717 C.3	1 RES1 0.0
48 H24	8.3138  9.7785  2.0794 H	1 RES1 0.0
49 H25	6.823  10.3584  2.076 H	1 RES1 0.0
50 H26	7.3827  9.5834  0.7919 H	1 RES1 0.0
51 C23	3.6306  6.9545  3.7936 C.3	1 RES1 0.0
52 H27	3.2039  6.164  3.401 H	1 RES1 0.0
53 H28	3.1363  7.7581  3.527 H	1 RES1 0.0
54 H29	3.6254  6.8775  4.7703 H	1 RES1 0.0
55 C24	7.9529  4.6676  2.7509 C.3	1 RES1 0.0
56 H30	8.1083  4.4269  1.8138 H	1 RES1 0.0
57 H31	7.449  3.9525  3.1915 H	1 RES1 0.0
58 H32	8.8127  4.7877  3.2034 H	1 RES1 0.0
@<TRIPOS>BOND
1 1 3 1
1 1 4 1
1 1 10 1
1 2 3 1
1 2 7 1
1 2 19 1
1 4 5 1
1 4 6 1
1 4 7 1
1 7 8 1
1 7 9 1
1 10 11 ar
1 10 18 ar
1 11 12 ar
1 11 27 1
1 12 13 1
1 12 14 ar
1 14 15 1
1 14 16 ar
1 16 17 1
1 16 18 ar
1 18 37 1
1 19 20 ar
1 19 26 ar
1 20 21 ar
1 20 47 1
1 21 22 1
1 21 23 ar
1 23 24 ar
1 23 51 1
1 24 25 1
1 24 26 ar
1 26 55 1
1 27 28 1
1 27 29 1
1 27 33 1
1 29 30 1
1 29 31 1
1 29 32 1
1 33 34 1
1 33 35 1
1 33 36 1
1 37 38 1
1 37 39 1
1 37 43 1
1 39 40 1
1 39 41 1
1 39 42 1
1 43 44 1
1 43 45 1
1 43 46 1
1 47 48 1
1 47 49 1
1 47 50 1
1 51 52 1
1 51 53 1
1 51 54 1
1 55 56 1
1 55 57 1
1 55 58 1
@<TRIPOS>SUBSTRUCTURE
1 RES1 58

