@<TRIPOS>MOLECULE

41	43	1
SMALL
PartialCharges
****
Generated from molSimplify

@<TRIPOS>ATOM
1 N1	6.0266  9.4555  1.4083 N.pl3	1 RES1 0.0
2 N2	7.0445  7.6478  1.9338 N.pl3	1 RES1 0.0
3 C1	6.9554  8.9194  2.2674 C.3	1 RES1 0.0
4 C2	5.5798  8.4714  0.5402 C.2	1 RES1 0.0
5 H1	4.9418  8.5813  -0.1545 H	1 RES1 0.0
6 C3	6.1996  7.3655  0.8511 C.2	1 RES1 0.0
7 H2	6.0968  6.5237  0.4236 H	1 RES1 0.0
8 C4	5.7007  10.867  1.3005 C.ar	1 RES1 0.0
9 C5	4.6375  11.4031  2.0143 C.ar	1 RES1 0.0
10 C6	4.3956  12.7809  1.8589 C.ar	1 RES1 0.0
11 H3	3.6891  13.1837  2.3489 H	1 RES1 0.0
12 C7	5.1649  13.5656  1.0055 C.ar	1 RES1 0.0
13 C8	6.1626  12.9959  0.2531 C.ar	1 RES1 0.0
14 H4	6.654  13.5331  -0.3574 H	1 RES1 0.0
15 C9	6.4751  11.6077  0.3722 C.ar	1 RES1 0.0
16 C10	3.7591  10.551  2.8881 C.3	1 RES1 0.0
17 H5	3.0967  11.1158  3.3375 H	1 RES1 0.0
18 H6	4.3099  10.0961  3.5595 H	1 RES1 0.0
19 H7	3.2992  9.8833  2.3371 H	1 RES1 0.0
20 C11	4.9315  15.0781  0.9646 C.3	1 RES1 0.0
21 H8	4.7913  15.3624  0.0377 H	1 RES1 0.0
22 H9	5.7138  15.5391  1.3334 H	1 RES1 0.0
23 H10	4.1399  15.3007  1.4981 H	1 RES1 0.0
24 C12	7.5584  10.9577  -0.4278 C.3	1 RES1 0.0
25 H11	7.9094  11.5948  -1.0841 H	1 RES1 0.0
26 H12	7.1953  10.1753  -0.8945 H	1 RES1 0.0
27 H13	8.2815  10.6731  0.1701 H	1 RES1 0.0
28 C13	8.027  6.7336  2.5159 C.3	1 RES1 0.0
29 H14	8.4555  7.1258  3.3299 H	1 RES1 0.0
30 C14	7.4896  5.348  2.7826 C.3	1 RES1 0.0
31 H15	6.978  5.0034  2.0082 H	1 RES1 0.0
32 H16	6.914  5.3323  3.588 H	1 RES1 0.0
33 C15	8.803  4.5426  3.0039 C.3	1 RES1 0.0
34 H17	8.9358  4.4227  3.9775 H	1 RES1 0.0
35 H18	8.6872  3.6421  2.6077 H	1 RES1 0.0
36 C16	9.6899  5.1642  1.7476 C.3	1 RES1 0.0
37 H19	10.6324  5.2826  2.019 H	1 RES1 0.0
38 H20	9.6661  4.5402  0.9742 H	1 RES1 0.0
39 C17	9.0869  6.5161  1.3391 C.3	1 RES1 0.0
40 H21	8.6473  6.4687  0.4524 H	1 RES1 0.0
41 H22	9.7733  7.2308  1.3259 H	1 RES1 0.0
@<TRIPOS>BOND
1 1 3 1
1 1 4 1
1 1 8 1
1 2 3 1
1 2 6 1
1 2 28 1
1 4 5 1
1 4 6 2
1 6 7 1
1 8 9 ar
1 8 15 ar
1 9 10 ar
1 9 16 1
1 10 11 1
1 10 12 ar
1 12 13 ar
1 12 20 1
1 13 14 1
1 13 15 ar
1 15 24 1
1 16 17 1
1 16 18 1
1 16 19 1
1 20 21 1
1 20 22 1
1 20 23 1
1 24 25 1
1 24 26 1
1 24 27 1
1 28 29 1
1 28 30 1
1 28 39 1
1 30 31 1
1 30 32 1
1 30 33 1
1 33 34 1
1 33 35 1
1 33 36 1
1 36 37 1
1 36 38 1
1 36 39 1
1 39 40 1
1 39 41 1
@<TRIPOS>SUBSTRUCTURE
1 RES1 41

