@<TRIPOS>MOLECULE

73	75	1
SMALL
PartialCharges
****
Generated from molSimplify

@<TRIPOS>ATOM
1 N1	2.4176  15.897  4.5059 N.pl3	1 RES1 0.0
2 N2	4.5963  16.6003  4.1046 N.pl3	1 RES1 0.0
3 C1	3.5132  15.919  3.7093 C.3	1 RES1 0.0
4 C2	2.3194  16.2059  5.9558 C.3	1 RES1 0.0
5 H1	1.5682  15.6882  6.3403 H	1 RES1 0.0
6 H2	2.105  17.1665  6.0602 H	1 RES1 0.0
7 C3	3.5489  15.9081  6.7307 C.3	1 RES1 0.0
8 H3	3.9464  15.0613  6.4089 H	1 RES1 0.0
9 H4	3.3186  15.7958  7.6864 H	1 RES1 0.0
10 C4	4.5652  17.0433  6.5771 C.3	1 RES1 0.0
11 H5	4.3517  17.7607  7.2238 H	1 RES1 0.0
12 H6	5.4696  16.7003  6.7902 H	1 RES1 0.0
13 C5	4.5706  17.6141  5.1981 C.3	1 RES1 0.0
14 H7	3.7663  18.1771  5.0863 H	1 RES1 0.0
15 H8	5.3621  18.2005  5.1026 H	1 RES1 0.0
16 C6	1.1379  15.4964  3.9232 C.ar	1 RES1 0.0
17 C7	0.3068  16.5006  3.4267 C.ar	1 RES1 0.0
18 C8	-0.9263  16.1201  2.8904 C.ar	1 RES1 0.0
19 H9	-1.5096  16.7813  2.5368 H	1 RES1 0.0
20 C9	-1.3087  14.7915  2.8684 C.ar	1 RES1 0.0
21 H10	-2.1423  14.5451  2.4862 H	1 RES1 0.0
22 C10	-0.4818  13.8246  3.3994 C.ar	1 RES1 0.0
23 H11	-0.7619  12.917  3.3842 H	1 RES1 0.0
24 C11	0.7506  14.1443  3.9561 C.ar	1 RES1 0.0
25 C12	0.6703  17.9806  3.4777 C.3	1 RES1 0.0
26 H12	1.6577  18.0414  3.63 H	1 RES1 0.0
27 C13	-0.0151  18.6621  4.6581 C.3	1 RES1 0.0
28 H13	-0.0873  18.0289  5.4025 H	1 RES1 0.0
29 H14	-0.9099  18.9552  4.3907 H	1 RES1 0.0
30 H15	0.5145  19.4387  4.9381 H	1 RES1 0.0
31 C14	0.3627  18.7276  2.1935 C.3	1 RES1 0.0
32 H16	0.7916  18.2722  1.4401 H	1 RES1 0.0
33 H17	0.7038  19.6445  2.2604 H	1 RES1 0.0
34 H18	-0.6063  18.7478  2.0526 H	1 RES1 0.0
35 C15	1.5797  13.073  4.6407 C.3	1 RES1 0.0
36 H19	2.4954  13.441  4.8026 H	1 RES1 0.0
37 C16	1.7158  11.7942  3.8215 C.3	1 RES1 0.0
38 H20	2.0816  12.0094  2.9379 H	1 RES1 0.0
39 H21	0.8358  11.3794  3.7167 H	1 RES1 0.0
40 H22	2.3191  11.1735  4.2822 H	1 RES1 0.0
41 C17	0.9471  12.7392  5.997 C.3	1 RES1 0.0
42 H23	0.868  13.5564  6.53 H	1 RES1 0.0
43 H24	1.5133  12.0936  6.4703 H	1 RES1 0.0
44 H25	0.0573  12.3525  5.856 H	1 RES1 0.0
45 C18	5.7628  16.6831  3.2446 C.ar	1 RES1 0.0
46 C19	6.9298  16.0047  3.6072 C.ar	1 RES1 0.0
47 C20	8.0414  16.1435  2.7663 C.ar	1 RES1 0.0
48 H26	8.8459  15.6928  2.9922 H	1 RES1 0.0
49 C21	8.0068  16.9092  1.6316 C.ar	1 RES1 0.0
50 H27	8.7721  16.9747  1.0715 H	1 RES1 0.0
51 C22	6.851  17.5829  1.3136 C.ar	1 RES1 0.0
52 H28	6.8264  18.1084  0.524 H	1 RES1 0.0
53 C23	5.7099  17.5205  2.1158 C.ar	1 RES1 0.0
54 C24	7.0792  15.2157  4.8879 C.3	1 RES1 0.0
55 H29	6.1642  15.0394  5.2489 H	1 RES1 0.0
56 C25	7.851  16.0219  5.9355 C.3	1 RES1 0.0
57 H30	7.423  16.8952  6.0566 H	1 RES1 0.0
58 H31	8.7758  16.1482  5.6338 H	1 RES1 0.0
59 H32	7.8492  15.5369  6.7865 H	1 RES1 0.0
60 C26	7.7804  13.8605  4.6942 C.3	1 RES1 0.0
61 H33	7.2812  13.324  4.0437 H	1 RES1 0.0
62 H34	7.8174  13.3848  5.5507 H	1 RES1 0.0
63 H35	8.6922  14.0086  4.3636 H	1 RES1 0.0
64 C27	4.5348  18.4266  1.7978 C.3	1 RES1 0.0
65 H36	3.7286  18.0757  2.273 H	1 RES1 0.0
66 C28	4.8241  19.8472  2.311 C.3	1 RES1 0.0
67 H37	4.0936  20.4445  2.0472 H	1 RES1 0.0
68 H38	5.6658  20.1685  1.9279 H	1 RES1 0.0
69 H39	4.8952  19.8317  3.2885 H	1 RES1 0.0
70 C29	4.2145  18.5217  0.3072 C.3	1 RES1 0.0
71 H40	4.2668  17.6313  -0.0976 H	1 RES1 0.0
72 H41	4.8631  19.1159  -0.1283 H	1 RES1 0.0
73 H42	3.3122  18.8819  0.1879 H	1 RES1 0.0
@<TRIPOS>BOND
1 1 3 1
1 1 4 1
1 1 16 1
1 2 3 1
1 2 13 1
1 2 45 1
1 4 5 1
1 4 6 1
1 4 7 1
1 7 8 1
1 7 9 1
1 7 10 1
1 10 11 1
1 10 12 1
1 10 13 1
1 13 14 1
1 13 15 1
1 16 17 ar
1 16 24 ar
1 17 18 ar
1 17 25 1
1 18 19 1
1 18 20 ar
1 20 21 1
1 20 22 ar
1 22 23 1
1 22 24 ar
1 24 35 1
1 25 26 1
1 25 27 1
1 25 31 1
1 27 28 1
1 27 29 1
1 27 30 1
1 31 32 1
1 31 33 1
1 31 34 1
1 35 36 1
1 35 37 1
1 35 41 1
1 37 38 1
1 37 39 1
1 37 40 1
1 41 42 1
1 41 43 1
1 41 44 1
1 45 46 ar
1 45 53 ar
1 46 47 ar
1 46 54 1
1 47 48 1
1 47 49 ar
1 49 50 1
1 49 51 ar
1 51 52 1
1 51 53 ar
1 53 64 1
1 54 55 1
1 54 56 1
1 54 60 1
1 56 57 1
1 56 58 1
1 56 59 1
1 60 61 1
1 60 62 1
1 60 63 1
1 64 65 1
1 64 66 1
1 64 70 1
1 66 67 1
1 66 68 1
1 66 69 1
1 70 71 1
1 70 72 1
1 70 73 1
@<TRIPOS>SUBSTRUCTURE
1 RES1 73

