@<TRIPOS>MOLECULE

37	37	1
SMALL
PartialCharges
****
Generated from molSimplify

@<TRIPOS>ATOM
1 N1	13.8528  5.0155  5.371 N.pl3	1 RES1 0.0
2 N2	12.0894  4.277  6.464 N.2	1 RES1 0.0
3 N3	12.9592  3.2385  6.1047 N.pl3	1 RES1 0.0
4 N4	12.1986  6.6144  6.0086 N.pl3	1 RES1 0.0
5 H1	12.6435  7.2299  5.6051 H	1 RES1 0.0
6 C1	14.0478  3.6682  5.4752 C.3	1 RES1 0.0
7 C2	12.6688  5.3342  5.9853 C.2	1 RES1 0.0
8 C3	14.6587  5.932  4.5836 C.3	1 RES1 0.0
9 H2	15.1869  6.478  5.17 H	1 RES1 0.0
10 H3	14.0839  6.4908  4.0561 H	1 RES1 0.0
11 H4	15.2379  5.4309  4.0044 H	1 RES1 0.0
12 C4	10.9459  6.9737  6.7059 C.3	1 RES1 0.0
13 C5	11.0345  6.6496  8.1825 C.3	1 RES1 0.0
14 H5	11.0716  5.6969  8.2988 H	1 RES1 0.0
15 H6	10.2616  6.9968  8.6333 H	1 RES1 0.0
16 H7	11.8263  7.0478  8.5505 H	1 RES1 0.0
17 C6	10.8267  8.4936  6.5409 C.3	1 RES1 0.0
18 H8	11.5983  8.9187  6.9197 H	1 RES1 0.0
19 H9	10.0366  8.8029  6.9924 H	1 RES1 0.0
20 H10	10.7658  8.7105  5.6077 H	1 RES1 0.0
21 C7	9.7758  6.2858  6.0541 C.3	1 RES1 0.0
22 H11	9.7589  6.5014  5.1185 H	1 RES1 0.0
23 H12	8.9607  6.5822  6.4653 H	1 RES1 0.0
24 H13	9.8624  5.3361  6.162 H	1 RES1 0.0
25 C8	12.521  1.8759  6.5116 C.3	1 RES1 0.0
26 C9	13.2684  0.8297  5.7404 C.3	1 RES1 0.0
27 H14	13.1605  0.9878  4.7996 H	1 RES1 0.0
28 H15	12.9241  -0.0383  5.961 H	1 RES1 0.0
29 H16	14.2011  0.871  5.9664 H	1 RES1 0.0
30 C10	11.0507  1.7605  6.13 C.3	1 RES1 0.0
31 H17	10.5433  2.416  6.6118 H	1 RES1 0.0
32 H18	10.7321  0.8821  6.3494 H	1 RES1 0.0
33 H19	10.9541  1.9094  5.1863 H	1 RES1 0.0
34 C11	12.7082  1.7396  7.9629 C.3	1 RES1 0.0
35 H20	13.6416  1.8159  8.1734 H	1 RES1 0.0
36 H21	12.3843  0.8826  8.2482 H	1 RES1 0.0
37 H22	12.2207  2.4328  8.4142 H	1 RES1 0.0
@<TRIPOS>BOND
1 1 6 1
1 1 7 1
1 1 8 1
1 2 3 1
1 2 7 2
1 3 6 1
1 3 25 1
1 4 5 1
1 4 7 1
1 4 12 1
1 8 9 1
1 8 10 1
1 8 11 1
1 12 13 1
1 12 17 1
1 12 21 1
1 13 14 1
1 13 15 1
1 13 16 1
1 17 18 1
1 17 19 1
1 17 20 1
1 21 22 1
1 21 23 1
1 21 24 1
1 25 26 1
1 25 30 1
1 25 34 1
1 26 27 1
1 26 28 1
1 26 29 1
1 30 31 1
1 30 32 1
1 30 33 1
1 34 35 1
1 34 36 1
1 34 37 1
@<TRIPOS>SUBSTRUCTURE
1 RES1 37

