@<TRIPOS>MOLECULE

36	38	1
SMALL
PartialCharges
****
Generated from molSimplify

@<TRIPOS>ATOM
1 O1	8.5112  1.1435  3.134 O.3	1 RES1 0.0
2 O2	10.3453  1.2811  5.0568 O.3	1 RES1 0.0
3 N1	8.2939  3.3795  2.5454 N.pl3	1 RES1 0.0
4 N2	7.6187  5.4211  2.8793 N.pl3	1 RES1 0.0
5 C1	8.5874  4.5401  3.1923 C.3	1 RES1 0.0
6 C2	10.1193  -2.1294  2.7038 C.ar	1 RES1 0.0
7 H1	10.0567  -2.8784  2.1556 H	1 RES1 0.0
8 C3	7.1022  3.5225  1.8208 C.ar	1 RES1 0.0
9 C4	9.1658  2.234  2.4859 C.3	1 RES1 0.0
10 H2	9.3545  2.0076  1.5618 H	1 RES1 0.0
11 H3	10.0044  2.4309  2.9309 H	1 RES1 0.0
12 C5	11.0671  -2.078  3.715 C.ar	1 RES1 0.0
13 H4	11.6363  -2.8015  3.8452 H	1 RES1 0.0
14 C6	6.6805  4.8322  2.0346 C.ar	1 RES1 0.0
15 C7	5.1983  3.1241  0.4984 C.ar	1 RES1 0.0
16 H5	4.6717  2.5574  -0.0174 H	1 RES1 0.0
17 C8	4.7842  4.448  0.6824 C.ar	1 RES1 0.0
18 H6	4.0003  4.7387  0.2764 H	1 RES1 0.0
19 C9	11.1798  -0.9603  4.5379 C.ar	1 RES1 0.0
20 H7	11.8177  -0.9401  5.2144 H	1 RES1 0.0
21 C10	9.2601  -1.047  2.5161 C.ar	1 RES1 0.0
22 H8	8.6127  -1.0775  1.8492 H	1 RES1 0.0
23 C11	6.3681  2.627  1.0593 C.ar	1 RES1 0.0
24 H9	6.6419  1.7471  0.9317 H	1 RES1 0.0
25 C12	7.5237  6.7997  3.3448 C.3	1 RES1 0.0
26 H10	6.726  6.9069  3.8674 H	1 RES1 0.0
27 H11	7.4936  7.3918  2.5898 H	1 RES1 0.0
28 H12	8.2896  7.0092  3.8847 H	1 RES1 0.0
29 C13	5.5179  5.3388  1.4588 C.ar	1 RES1 0.0
30 H13	5.2489  6.2197  1.5855 H	1 RES1 0.0
31 C14	9.3713  0.0705  3.3195 C.ar	1 RES1 0.0
32 C15	10.3329  0.1252  4.3411 C.ar	1 RES1 0.0
33 C16	11.3981  1.4547  6.0033 C.3	1 RES1 0.0
34 H14	12.2452  1.4007  5.5539 H	1 RES1 0.0
35 H15	11.3458  0.7663  6.6704 H	1 RES1 0.0
36 H16	11.3131  2.3144  6.4224 H	1 RES1 0.0
@<TRIPOS>BOND
1 1 9 1
1 1 31 1
1 2 32 1
1 2 33 1
1 3 5 1
1 3 8 1
1 3 9 1
1 4 5 1
1 4 14 1
1 4 25 1
1 6 7 1
1 6 12 ar
1 6 21 ar
1 8 14 ar
1 8 23 ar
1 9 10 1
1 9 11 1
1 12 13 1
1 12 19 ar
1 14 29 ar
1 15 16 1
1 15 17 ar
1 15 23 ar
1 17 18 1
1 17 29 ar
1 19 20 1
1 19 32 ar
1 21 22 1
1 21 31 ar
1 23 24 1
1 25 26 1
1 25 27 1
1 25 28 1
1 29 30 1
1 31 32 ar
1 33 34 1
1 33 35 1
1 33 36 1
@<TRIPOS>SUBSTRUCTURE
1 RES1 36

