@<TRIPOS>MOLECULE

25	26	1
SMALL
PartialCharges
****
Generated from molSimplify

@<TRIPOS>ATOM
1 N1	0.3784  0.9691  10.0036 N.pl3	1 RES1 0.0
2 C1	-0.0269  1.6014  11.2513 C.3	1 RES1 0.0
3 H1	0.695  2.1804  11.574 H	1 RES1 0.0
4 H2	-0.216  0.9111  11.9209 H	1 RES1 0.0
5 H3	-0.8325  2.1382  11.0987 H	1 RES1 0.0
6 N2	1.3545  0.5729  8.1388 N.pl3	1 RES1 0.0
7 C2	3.0449  -1.2  5.5397 C.ar	1 RES1 0.0
8 H4	2.4718  -0.9087  4.8409 H	1 RES1 0.0
9 C3	0.6156  -0.5552  8.4472 C.2	1 RES1 0.0
10 H5	0.551  -1.3491  7.9294 H	1 RES1 0.0
11 C4	1.2095  1.527  9.0921 C.3	1 RES1 0.0
12 C5	2.2106  0.714  6.9601 C.3	1 RES1 0.0
13 H6	2.7923  1.507  7.072 H	1 RES1 0.0
14 H7	1.6455  0.8609  6.1611 H	1 RES1 0.0
15 C6	3.0697  -0.5084  6.7459 C.ar	1 RES1 0.0
16 C7	0.0056  -0.3104  9.6229 C.2	1 RES1 0.0
17 H8	-0.5682  -0.8997  10.098 H	1 RES1 0.0
18 C8	3.9154  -0.9421  7.7606 C.ar	1 RES1 0.0
19 H9	3.9449  -0.4704  8.5844 H	1 RES1 0.0
20 C9	3.8533  -2.3133  5.3509 C.ar	1 RES1 0.0
21 H10	3.8369  -2.7783  4.5225 H	1 RES1 0.0
22 C10	4.6836  -2.7451  6.3715 C.ar	1 RES1 0.0
23 H11	5.2307  -3.5118  6.2464 H	1 RES1 0.0
24 C11	4.717  -2.0606  7.5751 C.ar	1 RES1 0.0
25 H12	5.2884  -2.3561  8.274 H	1 RES1 0.0
@<TRIPOS>BOND
1 1 2 1
1 1 11 1
1 1 16 1
1 2 3 1
1 2 4 1
1 2 5 1
1 6 9 1
1 6 11 1
1 6 12 1
1 7 8 1
1 7 15 ar
1 7 20 ar
1 9 10 1
1 9 16 2
1 12 13 1
1 12 14 1
1 12 15 1
1 15 18 ar
1 16 17 1
1 18 19 1
1 18 24 ar
1 20 21 1
1 20 22 ar
1 22 23 1
1 22 24 ar
1 24 25 1
@<TRIPOS>SUBSTRUCTURE
1 RES1 25

