@<TRIPOS>MOLECULE

37	38	1
SMALL
PartialCharges
****
Generated from molSimplify

@<TRIPOS>ATOM
1 C1	8.7978  -2.1816  11.5686 C.3	1 RES1 0.0
2 N1	9.7656  -1.9356  12.4622 N.pl3	1 RES1 0.0
3 H1	9.6334  -1.4367  13.1184 H	1 RES1 0.0
4 C2	10.9656  -2.5109  12.0987 C.2	1 RES1 0.0
5 H2	11.7806  -2.4819  12.5859 H	1 RES1 0.0
6 C3	10.7568  -3.1147  10.9313 C.2	1 RES1 0.0
7 H3	11.3971  -3.5981  10.4228 H	1 RES1 0.0
8 N2	9.4122  -2.9022  10.5942 N.pl3	1 RES1 0.0
9 C4	8.8406  -3.2853  9.2988 C.ar	1 RES1 0.0
10 C5	9.1079  -2.5628  8.1226 C.ar	1 RES1 0.0
11 C6	8.5276  -3.0069  6.9323 C.ar	1 RES1 0.0
12 H4	8.6915  -2.537  6.124 H	1 RES1 0.0
13 C7	7.722  -4.1224  6.9225 C.ar	1 RES1 0.0
14 H5	7.319  -4.4036  6.1094 H	1 RES1 0.0
15 C8	7.4927  -4.836  8.0818 C.ar	1 RES1 0.0
16 H6	6.9279  -5.5997  8.0501 H	1 RES1 0.0
17 C9	8.0684  -4.4653  9.296 C.ar	1 RES1 0.0
18 C10	7.9025  -5.3377  10.5102 C.3	1 RES1 0.0
19 H7	8.1336  -4.7834  11.3095 H	1 RES1 0.0
20 C11	8.8706  -6.5465  10.4849 C.3	1 RES1 0.0
21 H8	8.689  -7.0947  9.6941 H	1 RES1 0.0
22 H9	8.7406  -7.0851  11.2935 H	1 RES1 0.0
23 H10	9.7956  -6.2232  10.4537 H	1 RES1 0.0
24 C12	6.4675  -5.8375  10.6971 C.3	1 RES1 0.0
25 H11	5.8469  -5.08  10.6354 H	1 RES1 0.0
26 H12	6.3801  -6.2595  11.5765 H	1 RES1 0.0
27 H13	6.2546  -6.4901  9.9979 H	1 RES1 0.0
28 C13	10.0544  -1.3751  8.0959 C.3	1 RES1 0.0
29 H14	10.1884  -1.0594  9.0352 H	1 RES1 0.0
30 C14	11.4097  -1.8174  7.5323 C.3	1 RES1 0.0
31 H15	11.2977  -2.1267  6.6161 H	1 RES1 0.0
32 H16	11.7685  -2.5425  8.088 H	1 RES1 0.0
33 H17	12.0303  -1.0568  7.554 H	1 RES1 0.0
34 C15	9.526  -0.2077  7.2682 C.3	1 RES1 0.0
35 H18	9.5196  -0.4571  6.3206 H	1 RES1 0.0
36 H19	10.1045  0.5717  7.3979 H	1 RES1 0.0
37 H20	8.6147  0.009  7.5555 H	1 RES1 0.0
@<TRIPOS>BOND
1 1 2 1
1 1 8 1
1 2 3 1
1 2 4 1
1 4 5 1
1 4 6 2
1 6 7 1
1 6 8 1
1 8 9 1
1 9 10 ar
1 9 17 ar
1 10 11 ar
1 10 28 1
1 11 12 1
1 11 13 ar
1 13 14 1
1 13 15 ar
1 15 16 1
1 15 17 ar
1 17 18 1
1 18 19 1
1 18 20 1
1 18 24 1
1 20 21 1
1 20 22 1
1 20 23 1
1 24 25 1
1 24 26 1
1 24 27 1
1 28 29 1
1 28 30 1
1 28 34 1
1 30 31 1
1 30 32 1
1 30 33 1
1 34 35 1
1 34 36 1
1 34 37 1
@<TRIPOS>SUBSTRUCTURE
1 RES1 37

