@<TRIPOS>MOLECULE

33	34	1
SMALL
PartialCharges
****
Generated from molSimplify

@<TRIPOS>ATOM
1 N1	6.2659  6.6229  6.8113 N.pl3	1 RES1 0.0
2 N2	5.5082  5.8097  4.7538 N.pl3	1 RES1 0.0
3 C1	6.7907  5.6906  4.0415 C.3	1 RES1 0.0
4 H1	7.5212  5.8774  4.651 H	1 RES1 0.0
5 H2	6.898  4.7837  3.7126 H	1 RES1 0.0
6 C2	4.3873  5.5037  3.8668 C.3	1 RES1 0.0
7 H3	4.4801  4.5986  3.5275 H	1 RES1 0.0
8 H4	3.5559  5.555  4.3646 H	1 RES1 0.0
9 C3	7.2427  7.6344  6.381 C.3	1 RES1 0.0
10 H5	7.2993  7.6363  5.4117 H	1 RES1 0.0
11 H6	6.9452  8.512  6.6659 H	1 RES1 0.0
12 C4	4.3482  6.482  2.7066 C.3	1 RES1 0.0
13 H7	3.6224  6.2457  2.1089 H	1 RES1 0.0
14 H8	4.1835  7.3761  3.0429 H	1 RES1 0.0
15 C5	6.1248  6.6634  8.2681 C.3	1 RES1 0.0
16 H9	5.7856  7.5337  8.5324 H	1 RES1 0.0
17 H10	5.4806  5.9947  8.5457 H	1 RES1 0.0
18 C6	6.8326  6.6744  2.8652 C.3	1 RES1 0.0
19 H11	6.823  7.585  3.203 H	1 RES1 0.0
20 H12	7.6536  6.548  2.3659 H	1 RES1 0.0
21 C7	5.6462  6.4619  1.9532 C.3	1 RES1 0.0
22 H13	5.7393  5.6081  1.5024 H	1 RES1 0.0
23 H14	5.6336  7.1563  1.2777 H	1 RES1 0.0
24 C8	7.4497  6.4069  8.9657 C.3	1 RES1 0.0
25 H15	7.3311  6.5114  9.9232 H	1 RES1 0.0
26 H16	7.7283  5.4945  8.7968 H	1 RES1 0.0
27 C9	8.6136  7.3505  6.9669 C.3	1 RES1 0.0
28 H17	8.9282  6.4857  6.66 H	1 RES1 0.0
29 H18	9.2435  8.0247  6.6703 H	1 RES1 0.0
30 C10	8.5342  7.356  8.4898 C.3	1 RES1 0.0
31 H19	8.34  8.2537  8.8027 H	1 RES1 0.0
32 H20	9.3885  7.0866  8.8614 H	1 RES1 0.0
33 C11	5.3236  6.066  6.0417 C.2	1 RES1 0.0
@<TRIPOS>BOND
1 1 9 1
1 1 15 1
1 1 33 1
1 2 3 1
1 2 6 1
1 2 33 1
1 3 4 1
1 3 5 1
1 3 18 1
1 6 7 1
1 6 8 1
1 6 12 1
1 9 10 1
1 9 11 1
1 9 27 1
1 12 13 1
1 12 14 1
1 12 21 1
1 15 16 1
1 15 17 1
1 15 24 1
1 18 19 1
1 18 20 1
1 18 21 1
1 21 22 1
1 21 23 1
1 24 25 1
1 24 26 1
1 24 30 1
1 27 28 1
1 27 29 1
1 27 30 1
1 30 31 1
1 30 32 1
@<TRIPOS>SUBSTRUCTURE
1 RES1 33

