@<TRIPOS>MOLECULE

73	77	1
SMALL
PartialCharges
****
Generated from molSimplify

@<TRIPOS>ATOM
1 N1	0.3465  6.0498  2.9745 N.3	1 RES1 0.0
2 C1	1.1082  3.3157  5.2055 C.3	1 RES1 0.0
3 H1	2.0794  3.3189  4.969 H	1 RES1 0.0
4 C2	-1.309  0.6054  3.9576 C.ar	1 RES1 0.0
5 H2	-2.2442  0.5323  3.8046 H	1 RES1 0.0
6 C3	2.7407  9.6164  3.4129 C.ar	1 RES1 0.0
7 H3	2.7177  10.1131  4.222 H	1 RES1 0.0
8 C4	1.7446  -1.4659  3.6933 C.ar	1 RES1 0.0
9 H4	1.3804  -2.269  3.3412 H	1 RES1 0.0
10 C5	3.7642  9.1346  1.2992 C.ar	1 RES1 0.0
11 C6	3.0704  -1.4031  3.9833 C.ar	1 RES1 0.0
12 H5	3.6183  -2.1714  3.8709 H	1 RES1 0.0
13 C7	3.7007  9.8667  2.4946 C.ar	1 RES1 0.0
14 H6	4.342  10.5478  2.6616 H	1 RES1 0.0
15 C8	-0.2782  3.1035  7.4101 C.3	1 RES1 0.0
16 H7	-0.9991  3.6301  7.0045 H	1 RES1 0.0
17 H8	-0.2452  3.282  8.3722 H	1 RES1 0.0
18 H9	-0.4462  2.1493  7.2592 H	1 RES1 0.0
19 C9	-1.1974  8.6646  1.8258 C.3	1 RES1 0.0
20 H10	-1.4422  8.4003  2.7376 H	1 RES1 0.0
21 H11	-1.9947  8.9859  1.3538 H	1 RES1 0.0
22 H12	-0.5291  9.3801  1.86 H	1 RES1 0.0
23 N2	0.5235  4.4611  4.4748 N.3	1 RES1 0.0
24 C10	4.7435  9.4199  0.3029 C.ar	1 RES1 0.0
25 H13	5.3622  10.126  0.4527 H	1 RES1 0.0
26 C11	-0.779  1.8036  4.4809 C.ar	1 RES1 0.0
27 H14	-1.3715  2.5158  4.6907 H	1 RES1 0.0
28 C12	1.4512  0.878  4.4103 C.ar	1 RES1 0.0
29 C13	2.811  8.0969  1.052 C.ar	1 RES1 0.0
30 C14	4.8151  8.7136  -0.8487 C.ar	1 RES1 0.0
31 H15	5.4722  8.9289  -1.4994 H	1 RES1 0.0
32 C15	1.7709  8.6143  3.171 C.ar	1 RES1 0.0
33 H16	1.1008  8.4518  3.8249 H	1 RES1 0.0
34 C16	1.7709  7.8724  2.0184 C.ar	1 RES1 0.0
35 C17	0.6637  6.8447  1.7616 C.3	1 RES1 0.0
36 H17	1.042  6.1957  1.1012 H	1 RES1 0.0
37 C18	-0.2236  7.9496  -0.32 C.3	1 RES1 0.0
38 H18	-1.0097  8.3303  -0.7631 H	1 RES1 0.0
39 H19	0.1185  7.1994  -0.8487 H	1 RES1 0.0
40 H20	0.4711  8.636  -0.2408 H	1 RES1 0.0
41 C19	-0.6142  7.4534  1.0809 C.3	1 RES1 0.0
42 C20	-0.4981  -0.4409  3.6719 C.ar	1 RES1 0.0
43 H21	-0.8631  -1.2413  3.3123 H	1 RES1 0.0
44 C21	2.9391  7.3615  -0.1605 C.ar	1 RES1 0.0
45 H22	2.3366  6.6488  -0.3382 H	1 RES1 0.0
46 C22	1.0597  3.4929  6.7712 C.3	1 RES1 0.0
47 C23	0.8895  -0.3426  3.9084 C.ar	1 RES1 0.0
48 C24	2.8558  0.9039  4.6276 C.ar	1 RES1 0.0
49 H23	3.2658  1.7147  4.9058 H	1 RES1 0.0
50 C25	-0.8147  5.0586  4.7057 C.3	1 RES1 0.0
51 H24	-0.9956  5.1809  5.671 H	1 RES1 0.0
52 H25	-1.5329  4.5068  4.3044 H	1 RES1 0.0
53 C26	2.1347  2.5786  7.3758 C.3	1 RES1 0.0
54 H26	1.9364  1.6465  7.149 H	1 RES1 0.0
55 H27	2.1426  2.6834  8.3508 H	1 RES1 0.0
56 H28	3.0126  2.8234  7.0141 H	1 RES1 0.0
57 C27	0.5715  1.9751  4.6961 C.ar	1 RES1 0.0
58 C28	1.4279  4.9337  7.1511 C.3	1 RES1 0.0
59 H29	2.2849  5.1717  6.738 H	1 RES1 0.0
60 H30	1.5037  5.0059  8.125 H	1 RES1 0.0
61 H31	0.7306  5.5437  6.8311 H	1 RES1 0.0
62 C29	-1.667  6.345  0.8915 C.3	1 RES1 0.0
63 H32	-2.0192  6.076  1.7648 H	1 RES1 0.0
64 H33	-1.2527  5.5732  0.4538 H	1 RES1 0.0
65 H34	-2.3999  6.6819  0.3339 H	1 RES1 0.0
66 C30	3.9156  7.6617  -1.0777 C.ar	1 RES1 0.0
67 H35	3.9824  7.1516  -1.8761 H	1 RES1 0.0
68 C31	3.6301  -0.203  4.4499 C.ar	1 RES1 0.0
69 H36	4.5589  -0.1621  4.6425 H	1 RES1 0.0
70 C32	-0.6748  6.3841  3.9972 C.3	1 RES1 0.0
71 H37	-1.5285  6.6672  3.582 H	1 RES1 0.0
72 H38	-0.3572  7.0926  4.6115 H	1 RES1 0.0
73 C33	1.0738  5.0041  3.3786 C.3	1 RES1 0.0
@<TRIPOS>BOND
1 1 35 1
1 1 70 1
1 1 73 1
1 2 3 1
1 2 23 1
1 2 46 1
1 2 57 1
1 4 5 1
1 4 26 ar
1 4 42 ar
1 6 7 1
1 6 13 ar
1 6 32 ar
1 8 9 1
1 8 11 ar
1 8 47 ar
1 10 13 ar
1 10 24 ar
1 10 29 ar
1 11 12 1
1 11 68 ar
1 13 14 1
1 15 16 1
1 15 17 1
1 15 18 1
1 15 46 1
1 19 20 1
1 19 21 1
1 19 22 1
1 19 41 1
1 23 50 1
1 23 73 1
1 24 25 1
1 24 30 ar
1 26 27 1
1 26 57 ar
1 28 47 ar
1 28 48 ar
1 28 57 ar
1 29 34 ar
1 29 44 ar
1 30 31 1
1 30 66 ar
1 32 33 1
1 32 34 ar
1 34 35 1
1 35 36 1
1 35 41 1
1 37 38 1
1 37 39 1
1 37 40 1
1 37 41 1
1 41 62 1
1 42 43 1
1 42 47 ar
1 44 45 1
1 44 66 ar
1 46 53 1
1 46 58 1
1 48 49 1
1 48 68 ar
1 50 51 1
1 50 52 1
1 50 70 1
1 53 54 1
1 53 55 1
1 53 56 1
1 58 59 1
1 58 60 1
1 58 61 1
1 62 63 1
1 62 64 1
1 62 65 1
1 66 67 1
1 68 69 1
1 70 71 1
1 70 72 1
@<TRIPOS>SUBSTRUCTURE
1 RES1 73

