@<TRIPOS>MOLECULE

49	50	1
SMALL
PartialCharges
****
Generated from molSimplify

@<TRIPOS>ATOM
1 N1	-1.5693  13.1115  3.5787 N.pl3	1 RES1 0.0
2 C1	-1.5095  11.9198  4.1972 C.3	1 RES1 0.0
3 N2	-2.6039  11.8908  5.0079 N.pl3	1 RES1 0.0
4 C2	-1.1353  14.5398  1.5904 C.ar	1 RES1 0.0
5 C3	-0.5688  13.5847  2.6127 C.3	1 RES1 0.0
6 H1	-0.1887  12.8197  2.1517 H	1 RES1 0.0
7 H2	0.1485  14.0274  3.0936 H	1 RES1 0.0
8 C4	-2.9512  10.8079  5.9263 C.3	1 RES1 0.0
9 H3	-2.8696  9.9603  5.4632 H	1 RES1 0.0
10 H4	-3.8757  10.9095  6.2009 H	1 RES1 0.0
11 C5	-3.3061  13.0636  4.8913 C.2	1 RES1 0.0
12 H5	-4.0847  13.2842  5.3497 H	1 RES1 0.0
13 C6	-2.6748  13.8314  4.0058 C.2	1 RES1 0.0
14 H6	-2.9259  14.682  3.7292 H	1 RES1 0.0
15 C7	-1.8046  14.0288  0.4848 C.ar	1 RES1 0.0
16 C8	-0.9645  15.9013  1.725 C.ar	1 RES1 0.0
17 C9	-2.2778  14.8678  -0.5168 C.ar	1 RES1 0.0
18 C10	-1.4218  16.7664  0.7036 C.ar	1 RES1 0.0
19 C11	-0.3273  16.4804  2.9711 C.3	1 RES1 0.0
20 H7	-0.5149  15.9115  3.7201 H	1 RES1 0.0
21 H8	-0.6838  17.3557  3.1345 H	1 RES1 0.0
22 H9	0.6231  16.54  2.844 H	1 RES1 0.0
23 C12	-1.9832  12.0708  7.91 C.3	1 RES1 0.0
24 H10	-2.8771  12.348  8.1619 H	1 RES1 0.0
25 H11	-1.6136  12.7544  7.3289 H	1 RES1 0.0
26 C13	-2.0697  16.2468  -0.3904 C.ar	1 RES1 0.0
27 C14	-2.0702  10.7891  7.1519 C.3	1 RES1 0.0
28 H12	-2.3986  10.1011  7.7511 H	1 RES1 0.0
29 H13	-1.1754  10.5336  6.8795 H	1 RES1 0.0
30 C15	-1.1264  11.9735  9.1606 C.3	1 RES1 0.0
31 H14	-0.2407  11.6934  8.9223 H	1 RES1 0.0
32 H15	-1.5123  11.3334  9.7644 H	1 RES1 0.0
33 H16	-1.0859  12.8328  9.5873 H	1 RES1 0.0
34 C16	-2.0502  12.5149  0.3677 C.3	1 RES1 0.0
35 H17	-1.552  12.1666  -0.3768 H	1 RES1 0.0
36 H18	-2.9865  12.3524  0.2292 H	1 RES1 0.0
37 H19	-1.7659  12.0809  1.1734 H	1 RES1 0.0
38 C17	-2.5845  17.1699  -1.4867 C.3	1 RES1 0.0
39 H20	-2.5268  16.7228  -2.3355 H	1 RES1 0.0
40 H21	-2.0515  17.9682  -1.5094 H	1 RES1 0.0
41 H22	-3.4986  17.4007  -1.3074 H	1 RES1 0.0
42 C18	-3.0092  14.2872  -1.7091 C.3	1 RES1 0.0
43 H23	-2.6035  13.4526  -1.9565 H	1 RES1 0.0
44 H24	-2.9582  14.8998  -2.4445 H	1 RES1 0.0
45 H25	-3.9297  14.1377  -1.4776 H	1 RES1 0.0
46 C19	-1.1562  18.2745  0.8012 C.3	1 RES1 0.0
47 H26	-1.9736  18.7317  1.01 H	1 RES1 0.0
48 H27	-0.8172  18.5938  -0.0386 H	1 RES1 0.0
49 H28	-0.5101  18.4414  1.4912 H	1 RES1 0.0
@<TRIPOS>BOND
1 1 2 1
1 1 5 1
1 1 13 1
1 2 3 1
1 3 8 1
1 3 11 1
1 4 5 1
1 4 15 ar
1 4 16 ar
1 5 6 1
1 5 7 1
1 8 9 1
1 8 10 1
1 8 27 1
1 11 12 1
1 11 13 2
1 13 14 1
1 15 17 ar
1 15 34 1
1 16 18 ar
1 16 19 1
1 17 26 ar
1 17 42 1
1 18 26 ar
1 18 46 1
1 19 20 1
1 19 21 1
1 19 22 1
1 23 24 1
1 23 25 1
1 23 27 1
1 23 30 1
1 26 38 1
1 27 28 1
1 27 29 1
1 30 31 1
1 30 32 1
1 30 33 1
1 34 35 1
1 34 36 1
1 34 37 1
1 38 39 1
1 38 40 1
1 38 41 1
1 42 43 1
1 42 44 1
1 42 45 1
1 46 47 1
1 46 48 1
1 46 49 1
@<TRIPOS>SUBSTRUCTURE
1 RES1 49

