@<TRIPOS>MOLECULE

41	42	1
SMALL
PartialCharges
****
Generated from molSimplify

@<TRIPOS>ATOM
1 O1	-6.2978  -2.2785  13.3219 O.2	1 RES1 0.0
2 N1	-3.2266  0.7365  14.0617 N.pl3	1 RES1 0.0
3 N2	-5.1523  0.2616  13.2645 N.pl3	1 RES1 0.0
4 N3	-6.8366  -2.084  11.1384 N.am	1 RES1 0.0
5 C1	-3.8852  0.4869  12.9029 C.3	1 RES1 0.0
6 C2	-4.119  0.6824  15.1204 C.2	1 RES1 0.0
7 H1	-3.9181  0.8302  16.0158 H	1 RES1 0.0
8 C3	-5.3123  0.3818  14.6207 C.2	1 RES1 0.0
9 H2	-6.1021  0.2737  15.0991 H	1 RES1 0.0
10 C4	-1.8046  1.0603  14.1813 C.3	1 RES1 0.0
11 H3	-1.3581  0.8198  13.354 H	1 RES1 0.0
12 H4	-1.4198  0.5216  14.891 H	1 RES1 0.0
13 C5	-1.54  2.5006  14.472 C.ar	1 RES1 0.0
14 C6	-1.0532  2.8943  15.7008 C.ar	1 RES1 0.0
15 H5	-0.8947  2.2571  16.36 H	1 RES1 0.0
16 C7	-0.8003  4.2276  15.9604 C.ar	1 RES1 0.0
17 H6	-0.4644  4.4775  16.7916 H	1 RES1 0.0
18 C8	-1.036  5.1853  15.0106 C.ar	1 RES1 0.0
19 H7	-0.8585  6.0792  15.1924 H	1 RES1 0.0
20 C9	-1.5353  4.813  13.7934 C.ar	1 RES1 0.0
21 H8	-1.7101  5.4587  13.1479 H	1 RES1 0.0
22 C10	-1.7805  3.4763  13.5163 C.ar	1 RES1 0.0
23 H9	-2.1105  3.2321  12.6822 H	1 RES1 0.0
24 C11	-6.2032  -0.1066  12.3371 C.3	1 RES1 0.0
25 H10	-5.9681  0.1999  11.4475 H	1 RES1 0.0
26 H11	-7.0281  0.3335  12.5957 H	1 RES1 0.0
27 C12	-6.423  -1.6139  12.3089 C.2	1 RES1 0.0
28 C13	-7.1121  -3.472  10.7786 C.3	1 RES1 0.0
29 C14	-7.5394  -3.4896  9.3291 C.3	1 RES1 0.0
30 H12	-8.3021  -2.9204  9.2134 H	1 RES1 0.0
31 H13	-7.768  -4.3871  9.0744 H	1 RES1 0.0
32 H14	-6.8177  -3.1746  8.7798 H	1 RES1 0.0
33 C15	-5.8695  -4.2707  10.9235 C.3	1 RES1 0.0
34 H15	-5.166  -3.8639  10.4121 H	1 RES1 0.0
35 H16	-6.0239  -5.163  10.6037 H	1 RES1 0.0
36 H17	-5.6158  -4.3032  11.849 H	1 RES1 0.0
37 C16	-8.1957  -4.0254  11.641 C.3	1 RES1 0.0
38 H18	-7.8919  -4.0676  12.5509 H	1 RES1 0.0
39 H19	-8.4258  -4.9069  11.3396 H	1 RES1 0.0
40 H20	-8.9683  -3.4584  11.5885 H	1 RES1 0.0
41 H21	-6.7958  -1.5929  10.6163 H	1 RES1 0.0
@<TRIPOS>BOND
1 1 27 2
1 2 5 1
1 2 6 1
1 2 10 1
1 3 5 1
1 3 8 1
1 3 24 1
1 4 27 am
1 4 28 1
1 4 41 1
1 6 7 1
1 6 8 2
1 8 9 1
1 10 11 1
1 10 12 1
1 10 13 1
1 13 14 ar
1 13 22 ar
1 14 15 1
1 14 16 ar
1 16 17 1
1 16 18 ar
1 18 19 1
1 18 20 ar
1 20 21 1
1 20 22 ar
1 22 23 1
1 24 25 1
1 24 26 1
1 24 27 1
1 28 29 1
1 28 33 1
1 28 37 1
1 29 30 1
1 29 31 1
1 29 32 1
1 33 34 1
1 33 35 1
1 33 36 1
1 37 38 1
1 37 39 1
1 37 40 1
@<TRIPOS>SUBSTRUCTURE
1 RES1 41

