@<TRIPOS>MOLECULE

117	123	1
SMALL
PartialCharges
****
Generated from molSimplify

@<TRIPOS>ATOM
1 C1	-21.0888  -7.5171  -1.333 C.3	1 RES1 0.0
2 N1	-21.168  -7.1226  -2.5956 N.pl3	1 RES1 0.0
3 C2	-20.4617  -5.9737  -3.1275 C.ar	1 RES1 0.0
4 C3	-20.564  -4.7675  -2.5198 C.ar	1 RES1 0.0
5 C4	-19.7685  -3.7091  -2.9827 C.ar	1 RES1 0.0
6 C5	-18.9268  -3.9213  -4.0829 C.ar	1 RES1 0.0
7 O1	-18.132  -2.8664  -4.5227 O.3	1 RES1 0.0
8 C6	-16.7813  -2.9237  -4.0491 C.3	1 RES1 0.0
9 C7	-16.1442  -1.6186  -4.1898 C.3	1 RES1 0.0
10 C8	-16.1145  -0.9761  -5.5648 C.3	1 RES1 0.0
11 H1	-15.659  -0.1287  -5.5201 H	1 RES1 0.0
12 H2	-17.0189  -0.845  -5.8855 H	1 RES1 0.0
13 H3	-15.6425  -1.5578  -6.1738 H	1 RES1 0.0
14 H4	-16.6228  -1.0119  -3.5984 H	1 RES1 0.0
15 H5	-15.2167  -1.7175  -3.8867 H	1 RES1 0.0
16 H6	-16.7747  -3.1823  -3.1112 H	1 RES1 0.0
17 H7	-16.2894  -3.5744  -4.5687 H	1 RES1 0.0
18 C9	-18.8872  -5.1322  -4.7596 C.ar	1 RES1 0.0
19 C10	-19.6431  -6.1822  -4.2575 C.ar	1 RES1 0.0
20 H8	-19.6101  -7.0285  -4.6581 H	1 RES1 0.0
21 C11	-18.1214  -5.3324  -6.0452 C.3	1 RES1 0.0
22 C12	-19.072  -5.7996  -7.1454 C.ar	1 RES1 0.0
23 C13	-20.0623  -4.9415  -7.6245 C.ar	1 RES1 0.0
24 O2	-20.1131  -3.6519  -7.1657 O.3	1 RES1 0.0
25 C14	-19.1281  -2.7532  -7.6922 C.3	1 RES1 0.0
26 C15	-19.5638  -2.1156  -8.9521 C.3	1 RES1 0.0
27 C16	-18.4746  -1.0179  -9.2836 C.3	1 RES1 0.0
28 H9	-18.8377  -0.3826  -9.9075 H	1 RES1 0.0
29 H10	-18.227  -0.5614  -8.4703 H	1 RES1 0.0
30 H11	-17.6956  -1.4314  -9.6639 H	1 RES1 0.0
31 H12	-20.4419  -1.7032  -8.8303 H	1 RES1 0.0
32 H13	-19.6167  -2.7771  -9.668 H	1 RES1 0.0
33 H14	-18.9466  -2.0488  -7.0453 H	1 RES1 0.0
34 H15	-18.3062  -3.2383  -7.8559 H	1 RES1 0.0
35 C17	-21.102  -5.3956  -8.4581 C.ar	1 RES1 0.0
36 C18	-22.2639  -4.4659  -8.7545 C.3	1 RES1 0.0
37 C19	-23.0891  -4.2323  -7.5122 C.ar	1 RES1 0.0
38 C20	-23.3102  -2.9642  -6.9736 C.ar	1 RES1 0.0
39 O3	-22.8518  -1.8474  -7.6313 O.3	1 RES1 0.0
40 C21	-23.5908  -1.4863  -8.7965 C.3	1 RES1 0.0
41 C22	-24.657  -0.4458  -8.5041 C.3	1 RES1 0.0
42 C23	-23.9737  0.8856  -8.0927 C.3	1 RES1 0.0
43 C24	-23.9308  -2.8033  -5.719 C.ar	1 RES1 0.0
44 C25	-24.3962  -3.9296  -5.0573 C.ar	1 RES1 0.0
45 C26	-24.2576  -5.1763  -5.6013 C.ar	1 RES1 0.0
46 C27	-23.5941  -5.3265  -6.8342 C.ar	1 RES1 0.0
47 H16	-23.4885  -6.181  -7.2009 H	1 RES1 0.0
48 H17	-24.591  -5.92  -5.152 H	1 RES1 0.0
49 H18	-24.8154  -3.8331  -4.2318 H	1 RES1 0.0
50 C28	-24.0496  -1.4457  -5.0397 C.3	1 RES1 0.0
51 C29	-23.3862  -1.5053  -3.6932 C.ar	1 RES1 0.0
52 C30	-21.9998  -1.6281  -3.5781 C.ar	1 RES1 0.0
53 O4	-21.2133  -1.6424  -4.719 O.3	1 RES1 0.0
54 C31	-20.9502  -0.3421  -5.29 C.3	1 RES1 0.0
55 C32	-19.8048  0.3552  -4.6567 C.3	1 RES1 0.0
56 C33	-19.445  1.6162  -5.4105 C.3	1 RES1 0.0
57 H19	-18.6528  2.0023  -5.0167 H	1 RES1 0.0
58 H20	-20.1712  2.2348  -5.355 H	1 RES1 0.0
59 H21	-19.2734  1.3969  -6.3294 H	1 RES1 0.0
60 H22	-20.0392  0.5852  -3.7419 H	1 RES1 0.0
61 H23	-19.0291  -0.2336  -4.6554 H	1 RES1 0.0
62 H24	-21.749  0.2122  -5.2034 H	1 RES1 0.0
63 H25	-20.7389  -0.466  -6.2347 H	1 RES1 0.0
64 C34	-21.3859  -1.9344  -2.3588 C.ar	1 RES1 0.0
65 C35	-19.9104  -2.3528  -2.3399 C.3	1 RES1 0.0
66 H26	-19.6068  -2.3992  -1.4196 H	1 RES1 0.0
67 H27	-19.379  -1.7056  -2.827 H	1 RES1 0.0
68 C36	-22.1814  -1.9749  -1.2193 C.ar	1 RES1 0.0
69 C37	-23.5413  -1.7318  -1.291 C.ar	1 RES1 0.0
70 C38	-24.152  -1.5244  -2.5077 C.ar	1 RES1 0.0
71 H28	-25.0729  -1.3993  -2.5469 H	1 RES1 0.0
72 H29	-24.043  -1.7115  -0.5088 H	1 RES1 0.0
73 H30	-21.7919  -2.174  -0.3952 H	1 RES1 0.0
74 H31	-24.9904  -1.2443  -4.9125 H	1 RES1 0.0
75 H32	-23.6337  -0.7533  -5.5837 H	1 RES1 0.0
76 H33	-22.8283  -4.8545  -9.442 H	1 RES1 0.0
77 H34	-21.914  -3.609  -9.0549 H	1 RES1 0.0
78 C39	-21.0723  -6.7114  -8.879 C.ar	1 RES1 0.0
79 C40	-20.0722  -7.5672  -8.4365 C.ar	1 RES1 0.0
80 C41	-19.0786  -7.125  -7.5717 C.ar	1 RES1 0.0
81 H35	-18.4119  -7.7066  -7.2767 H	1 RES1 0.0
82 H36	-20.0689  -8.4527  -8.7247 H	1 RES1 0.0
83 H37	-21.7292  -7.0213  -9.4582 H	1 RES1 0.0
84 H38	-17.4414  -6.0118  -5.8963 H	1 RES1 0.0
85 H39	-17.6956  -4.5029  -6.3023 H	1 RES1 0.0
86 H40	-21.1581  -4.6423  -1.8094 H	1 RES1 0.0
87 C42	-22.0163  -7.976  -3.321 C.ar	1 RES1 0.0
88 C43	-22.4487  -8.9211  -2.4251 C.ar	1 RES1 0.0
89 N2	-21.8711  -8.6077  -1.199 N.pl3	1 RES1 0.0
90 C44	-22.0328  -9.386  0.023 C.3	1 RES1 0.0
91 C45	-21.0129  -10.5218  0.1272 C.3	1 RES1 0.0
92 C46	-21.1944  -11.3228  1.3939 C.3	1 RES1 0.0
93 C47	-20.9865  -10.4158  2.6714 C.3	1 RES1 0.0
94 H41	-20.9931  -10.9664  3.4685 H	1 RES1 0.0
95 H42	-21.7028  -9.7638  2.7283 H	1 RES1 0.0
96 H43	-20.1316  -9.9581  2.6146 H	1 RES1 0.0
97 H44	-22.0989  -11.6934  1.4034 H	1 RES1 0.0
98 H45	-20.5376  -12.0581  1.4142 H	1 RES1 0.0
99 H46	-21.1218  -11.1154  -0.6347 H	1 RES1 0.0
100 H47	-20.1217  -10.1357  0.1164 H	1 RES1 0.0
101 H48	-22.9274  -9.7566  0.0311 H	1 RES1 0.0
102 H49	-21.9206  -8.7984  0.7863 H	1 RES1 0.0
103 C48	-23.3301  -9.9366  -2.8081 C.ar	1 RES1 0.0
104 C49	-23.7757  -9.9128  -4.1059 C.ar	1 RES1 0.0
105 C50	-23.3235  -8.9414  -5.0234 C.ar	1 RES1 0.0
106 C51	-22.4289  -7.9581  -4.6445 C.ar	1 RES1 0.0
107 H50	-22.1253  -7.3157  -5.2413 H	1 RES1 0.0
108 H51	-23.6337  -8.9581  -5.8977 H	1 RES1 0.0
109 H52	-24.3896  -10.548  -4.3847 H	1 RES1 0.0
110 H53	-23.6007  -10.591  -2.2099 H	1 RES1 0.0
111 H54	-24.0001  -2.2765  -9.197 H	1 RES1 0.0
112 H55	-22.9736  -1.0751  -9.4555 H	1 RES1 0.0
113 H56	-25.2412  -0.3158  -9.2796 H	1 RES1 0.0
114 H57	-25.2115  -0.789  -7.749 H	1 RES1 0.0
115 H58	-24.6339  1.5757  -8.0237 H	1 RES1 0.0
116 H59	-23.3235  1.112  -8.7653 H	1 RES1 0.0
117 H60	-23.5314  0.7735  -7.2496 H	1 RES1 0.0
@<TRIPOS>BOND
1 1 2 1
1 1 89 1
1 2 3 1
1 2 87 1
1 3 4 ar
1 3 19 ar
1 4 5 ar
1 4 86 1
1 5 6 ar
1 5 65 1
1 6 7 1
1 6 18 ar
1 7 8 1
1 8 9 1
1 8 16 1
1 8 17 1
1 9 10 1
1 9 14 1
1 9 15 1
1 10 11 1
1 10 12 1
1 10 13 1
1 18 19 ar
1 18 21 1
1 19 20 1
1 21 22 1
1 21 84 1
1 21 85 1
1 22 23 ar
1 22 80 ar
1 23 24 1
1 23 35 ar
1 24 25 1
1 25 26 1
1 25 33 1
1 25 34 1
1 26 27 1
1 26 31 1
1 26 32 1
1 27 28 1
1 27 29 1
1 27 30 1
1 35 36 1
1 35 78 ar
1 36 37 1
1 36 76 1
1 36 77 1
1 37 38 ar
1 37 46 ar
1 38 39 1
1 38 43 ar
1 39 40 1
1 40 41 1
1 40 111 1
1 40 112 1
1 41 42 1
1 41 113 1
1 41 114 1
1 42 115 1
1 42 116 1
1 42 117 1
1 43 44 ar
1 43 50 1
1 44 45 ar
1 44 49 1
1 45 46 ar
1 45 48 1
1 46 47 1
1 50 51 1
1 50 74 1
1 50 75 1
1 51 52 ar
1 51 70 ar
1 52 53 1
1 52 64 ar
1 53 54 1
1 54 55 1
1 54 62 1
1 54 63 1
1 55 56 1
1 55 60 1
1 55 61 1
1 56 57 1
1 56 58 1
1 56 59 1
1 64 65 1
1 64 68 ar
1 65 66 1
1 65 67 1
1 68 69 ar
1 68 73 1
1 69 70 ar
1 69 72 1
1 70 71 1
1 78 79 ar
1 78 83 1
1 79 80 ar
1 79 82 1
1 80 81 1
1 87 88 ar
1 87 106 ar
1 88 89 1
1 88 103 ar
1 89 90 1
1 90 91 1
1 90 101 1
1 90 102 1
1 91 92 1
1 91 99 1
1 91 100 1
1 92 93 1
1 92 97 1
1 92 98 1
1 93 94 1
1 93 95 1
1 93 96 1
1 103 104 ar
1 103 110 1
1 104 105 ar
1 104 109 1
1 105 106 ar
1 105 108 1
1 106 107 1
@<TRIPOS>SUBSTRUCTURE
1 RES1 117

